99
Liquid Crystals with Colloide in temperature=1.4, and potential=-1.1097e-23
Sp -0.0308721 0.585347 0.792595 0.158008 -0.138475 0.97768
Sp 0.168661 0.64011 1.19059 0.53594 0.787739 0.303703
Sp 2.4063 1.74859 -0.0246828 0.588303 0.139246 0.796561
Sp 2.43162 0.493659 0.790647 -0.360336 0.669741 -0.649311
Sp -0.341652 -0.245125 -0.305382 0.13662 -0.0632578 -0.988602
Sp 1.76653 0.23086 0.364024 0.981308 0.106373 0.16037
Sp 0.879566 0.337106 -0.308736 -0.777402 -0.150889 0.610638
Sp 2.39556 -0.0771351 2.44446 -0.0804219 -0.251599 0.964484
Sp -0.421867 0.00928599 1.69784 0.103815 0.955711 0.275388
Sp 2.15959 2.09588 -0.447094 0.93612 0.351377 0.0146313
Sp 2.23093 -0.393207 0.168504 -0.187083 0.819772 0.54127
Sp 0.839545 -0.397157 -0.0146915 0.476088 -0.878003 0.049508
Sp 1.30016 0.663014 0.461013 -0.551529 0.260502 0.792436
Sp 0.294215 2.35738 1.15036 -0.630833 -0.731099 0.259893
Sp 0.455529 0.407766 0.125955 0.69268 0.698498 0.179712
Sp 1.03708 0.898325 -0.337123 -0.121079 0.991376 -0.0501314
Sp 0.902405 -0.341845 -0.474155 -0.204668 0.00794381 0.978799
Sp 1.12632 0.458821 1.75029 0.743815 0.364242 0.560417
Sp 0.132772 1.83967 0.661086 -0.979942 -0.199254 0.00344187
Sp -0.278522 2.0038 0.13786 0.189574 0.962228 0.195396
Sp 1.68442 0.835817 -0.0339155 -0.418106 0.339852 -0.84243
Sp 0.284931 2.07499 0.883674 0.404033 0.840636 0.360679
Sp 0.0407302 1.02751 0.86776 0.10376 0.685339 0.720794
Sp -0.0037383 1.85382 0.429048 0.373975 0.813101 0.446105
Sp -0.0614701 1.82068 1.92964 0.0338374 0.928876 -0.368843
Sp 0.0562239 1.31175 2.11554 0.767066 0.277863 0.578275
Sp 1.25534 0.201728 -0.443192 -0.716652 0.558245 0.418059
d 5 5 5 0 0 1
d 5 5 5 0.5 0 0.866025
d 5 5 5 0.866025 0 0.5
d 5 5 5 1 0 4.64686e-14
d 5 5 5 0.866025 0 -0.5
d 5 5 5 0.5 0 -0.866025
d 5 5 5 0 0 1
d 5 5 5 0.433013 0.25 0.866025
d 5 5 5 0.75 0.433013 0.5
d 5 5 5 0.866025 0.5 4.64686e-14
d 5 5 5 0.75 0.433013 -0.5
d 5 5 5 0.433013 0.25 -0.866025
d 5 5 5 0 0 1
d 5 5 5 0.25 0.433013 0.866025
d 5 5 5 0.433013 0.75 0.5
d 5 5 5 0.5 0.866025 4.64686e-14
d 5 5 5 0.433013 0.75 -0.5
d 5 5 5 0.25 0.433013 -0.866025
d 5 5 5 0 0 1
d 5 5 5 2.32343e-14 0.5 0.866025
d 5 5 5 4.02429e-14 0.866025 0.5
d 5 5 5 4.64686e-14 1 4.64686e-14
d 5 5 5 4.02429e-14 0.866025 -0.5
d 5 5 5 2.32343e-14 0.5 -0.866025
d 5 5 5 -0 0 1
d 5 5 5 -0.25 0.433013 0.866025
d 5 5 5 -0.433013 0.75 0.5
d 5 5 5 -0.5 0.866025 4.64686e-14
d 5 5 5 -0.433013 0.75 -0.5
d 5 5 5 -0.25 0.433013 -0.866025
d 5 5 5 -0 0 1
d 5 5 5 -0.433013 0.25 0.866025
d 5 5 5 -0.75 0.433013 0.5
d 5 5 5 -0.866025 0.5 4.64686e-14
d 5 5 5 -0.75 0.433013 -0.5
d 5 5 5 -0.433013 0.25 -0.866025
d 5 5 5 -0 0 1
d 5 5 5 -0.5 4.64686e-14 0.866025
d 5 5 5 -0.866025 8.04859e-14 0.5
d 5 5 5 -1 9.29371e-14 4.64686e-14
d 5 5 5 -0.866025 8.04859e-14 -0.5
d 5 5 5 -0.5 4.64686e-14 -0.866025
d 5 5 5 -0 -0 1
d 5 5 5 -0.433013 -0.25 0.866025
d 5 5 5 -0.75 -0.433013 0.5
d 5 5 5 -0.866025 -0.5 4.64686e-14
d 5 5 5 -0.75 -0.433013 -0.5
d 5 5 5 -0.433013 -0.25 -0.866025
d 5 5 5 -0 -0 1
d 5 5 5 -0.25 -0.433013 0.866025
d 5 5 5 -0.433013 -0.75 0.5
d 5 5 5 -0.5 -0.866025 4.64686e-14
d 5 5 5 -0.433013 -0.75 -0.5
d 5 5 5 -0.25 -0.433013 -0.866025
d 5 5 5 -0 -0 1
d 5 5 5 -6.98139e-14 -0.5 0.866025
d 5 5 5 -1.20921e-13 -0.866025 0.5
d 5 5 5 -1.39628e-13 -1 4.64686e-14
d 5 5 5 -1.20921e-13 -0.866025 -0.5
d 5 5 5 -6.98139e-14 -0.5 -0.866025
d 5 5 5 0 -0 1
d 5 5 5 0.25 -0.433013 0.866025
d 5 5 5 0.433013 -0.75 0.5
d 5 5 5 0.5 -0.866025 4.64686e-14
d 5 5 5 0.433013 -0.75 -0.5
d 5 5 5 0.25 -0.433013 -0.866025
d 5 5 5 0 -0 1
d 5 5 5 0.433013 -0.25 0.866025
d 5 5 5 0.75 -0.433013 0.5
d 5 5 5 0.866025 -0.5 4.64686e-14
d 5 5 5 0.75 -0.433013 -0.5
d 5 5 5 0.433013 -0.25 -0.866025
