99
Liquid Crystals with Colloide in temperature=1.9, and potential=-3.39132e-23
Sp 0.0979871 1.77008 -0.279025 0.222829 0.175307 0.958965
Sp 1.82102 0.466644 -0.120519 0.788782 0.613138 -0.0434074
Sp 2.36127 1.67373 0.340237 0.537539 0.113769 0.835529
Sp 2.09191 -0.227397 0.626298 -0.455286 0.529785 -0.715572
Sp 2.06431 1.92355 0.274749 -0.0121218 -0.294066 -0.955708
Sp 1.23652 0.378532 1.29795 0.898096 0.16068 0.409397
Sp 0.0519912 -0.0781788 -0.256916 -0.830399 -0.217775 0.512847
Sp 0.227681 2.18505 1.4871 0.0996217 -0.47421 0.874757
Sp 2.44958 2.19629 1.92408 0.124803 0.904245 0.408368
Sp 0.109754 2.04926 2.04036 0.956023 0.268763 -0.117417
Sp 0.485876 0.541973 2.09074 0.0258606 0.825259 0.564163
Sp 0.582971 -0.0176872 0.3341 0.457823 -0.877108 0.145189
Sp 2.2406 1.80351 0.39549 -0.314854 0.547515 0.775303
Sp 0.550174 -0.0199159 1.0916 -0.661323 -0.690849 0.292199
Sp 0.224627 0.140933 1.9314 0.701818 0.694356 -0.15913
Sp 1.19152 -0.441851 0.815896 -0.0968194 0.949469 0.298554
Sp 0.336839 0.45857 -0.139738 -0.328978 0.196866 0.923589
Sp 2.00132 0.420579 1.5681 0.846913 0.306152 0.434752
Sp 0.893186 2.1884 -0.418114 -0.946699 -0.136569 -0.291736
Sp -0.168906 0.604281 -0.0703762 0.3455 0.911275 0.224071
Sp 2.26061 -0.0719693 -0.078705 -0.330075 0.172716 -0.928019
Sp -0.475863 1.45772 1.0131 0.265165 0.844874 0.464625
Sp 0.218116 2.40989 0.304804 0.121839 0.873864 0.470656
Sp 2.03084 1.17614 2.4794 0.223424 0.920059 0.321828
Sp -0.161011 2.01331 0.795596 0.0114155 0.830853 -0.556375
Sp -0.200894 2.14977 1.71819 0.728278 0.509966 0.457761
Sp 0.121757 2.17507 -0.039385 -0.469459 0.477719 0.742558
d 5 5 5 0 0 1
d 5 5 5 0.5 0 0.866025
d 5 5 5 0.866025 0 0.5
d 5 5 5 1 0 4.64686e-14
d 5 5 5 0.866025 0 -0.5
d 5 5 5 0.5 0 -0.866025
d 5 5 5 0 0 1
d 5 5 5 0.433013 0.25 0.866025
d 5 5 5 0.75 0.433013 0.5
d 5 5 5 0.866025 0.5 4.64686e-14
d 5 5 5 0.75 0.433013 -0.5
d 5 5 5 0.433013 0.25 -0.866025
d 5 5 5 0 0 1
d 5 5 5 0.25 0.433013 0.866025
d 5 5 5 0.433013 0.75 0.5
d 5 5 5 0.5 0.866025 4.64686e-14
d 5 5 5 0.433013 0.75 -0.5
d 5 5 5 0.25 0.433013 -0.866025
d 5 5 5 0 0 1
d 5 5 5 2.32343e-14 0.5 0.866025
d 5 5 5 4.02429e-14 0.866025 0.5
d 5 5 5 4.64686e-14 1 4.64686e-14
d 5 5 5 4.02429e-14 0.866025 -0.5
d 5 5 5 2.32343e-14 0.5 -0.866025
d 5 5 5 -0 0 1
d 5 5 5 -0.25 0.433013 0.866025
d 5 5 5 -0.433013 0.75 0.5
d 5 5 5 -0.5 0.866025 4.64686e-14
d 5 5 5 -0.433013 0.75 -0.5
d 5 5 5 -0.25 0.433013 -0.866025
d 5 5 5 -0 0 1
d 5 5 5 -0.433013 0.25 0.866025
d 5 5 5 -0.75 0.433013 0.5
d 5 5 5 -0.866025 0.5 4.64686e-14
d 5 5 5 -0.75 0.433013 -0.5
d 5 5 5 -0.433013 0.25 -0.866025
d 5 5 5 -0 0 1
d 5 5 5 -0.5 4.64686e-14 0.866025
d 5 5 5 -0.866025 8.04859e-14 0.5
d 5 5 5 -1 9.29371e-14 4.64686e-14
d 5 5 5 -0.866025 8.04859e-14 -0.5
d 5 5 5 -0.5 4.64686e-14 -0.866025
d 5 5 5 -0 -0 1
d 5 5 5 -0.433013 -0.25 0.866025
d 5 5 5 -0.75 -0.433013 0.5
d 5 5 5 -0.866025 -0.5 4.64686e-14
d 5 5 5 -0.75 -0.433013 -0.5
d 5 5 5 -0.433013 -0.25 -0.866025
d 5 5 5 -0 -0 1
d 5 5 5 -0.25 -0.433013 0.866025
d 5 5 5 -0.433013 -0.75 0.5
d 5 5 5 -0.5 -0.866025 4.64686e-14
d 5 5 5 -0.433013 -0.75 -0.5
d 5 5 5 -0.25 -0.433013 -0.866025
d 5 5 5 -0 -0 1
d 5 5 5 -6.98139e-14 -0.5 0.866025
d 5 5 5 -1.20921e-13 -0.866025 0.5
d 5 5 5 -1.39628e-13 -1 4.64686e-14
d 5 5 5 -1.20921e-13 -0.866025 -0.5
d 5 5 5 -6.98139e-14 -0.5 -0.866025
d 5 5 5 0 -0 1
d 5 5 5 0.25 -0.433013 0.866025
d 5 5 5 0.433013 -0.75 0.5
d 5 5 5 0.5 -0.866025 4.64686e-14
d 5 5 5 0.433013 -0.75 -0.5
d 5 5 5 0.25 -0.433013 -0.866025
d 5 5 5 0 -0 1
d 5 5 5 0.433013 -0.25 0.866025
d 5 5 5 0.75 -0.433013 0.5
d 5 5 5 0.866025 -0.5 4.64686e-14
d 5 5 5 0.75 -0.433013 -0.5
d 5 5 5 0.433013 -0.25 -0.866025
