99
Liquid Crystals with Colloide in temperature=0.5, and potential=-6.24821e-23
Sp 0.0205399 2.03694 -0.208901 0.229061 -0.346735 0.909563
Sp 0.412347 0.063051 -0.23163 0.648492 0.760072 -0.0418148
Sp 1.63928 1.67359 -0.208515 0.468483 0.146268 0.871281
Sp -0.0214369 1.36478 0.579797 -0.750851 0.543494 -0.375283
Sp 0.301985 1.67794 -0.163987 0.414854 -0.434276 -0.799563
Sp 0.508484 -0.0544988 2.38557 0.980712 0.0350377 -0.192295
Sp -0.476467 1.89252 1.20526 -0.880009 -0.443604 0.169706
Sp 1.3719 1.44344 0.446189 -0.287401 0.196866 0.93736
Sp 1.65703 1.17616 0.400191 -0.119979 0.990384 -0.0688853
Sp 0.886229 0.235171 2.20054 0.88956 0.445069 -0.102939
Sp 1.52127 -0.225583 1.09773 -0.287031 0.691385 0.663023
Sp 0.617645 2.0201 2.29019 0.331639 -0.93368 -0.13512
Sp 0.627821 -0.474652 0.409646 -0.558186 0.575073 0.598097
Sp 1.99326 1.12163 1.05428 -0.934863 -0.27766 0.221215
Sp 1.9199 2.17429 0.328544 0.197643 0.958315 0.206323
Sp 0.983116 0.0502413 0.290717 -0.157207 0.981882 0.105801
Sp 2.47564 2.4652 0.312282 -0.438645 -0.0402099 0.89776
Sp 1.62304 -0.126272 0.563072 0.924599 0.224257 0.307938
Sp -0.427606 1.04516 -0.464401 -0.855424 -0.318878 0.408125
Sp 2.17468 1.49861 2.42246 0.0735105 0.995731 0.0558125
Sp 2.31954 0.220901 1.89822 -0.18617 0.165442 -0.968488
Sp 0.406064 0.777229 0.305135 0.576686 0.75194 0.319406
Sp 2.15633 1.58576 -0.0910021 -0.145987 0.548317 0.823429
Sp -0.472246 1.18573 1.16297 0.147532 0.978598 -0.143455
Sp 1.95555 1.41912 0.386398 -0.257528 0.966129 0.0165763
Sp 0.761868 0.207241 1.87666 0.883745 -0.0198364 0.467549
Sp 1.488 0.0220931 0.300516 -0.792857 0.574585 -0.203051
d 5 5 5 0 0 1
d 5 5 5 0.5 0 0.866025
d 5 5 5 0.866025 0 0.5
d 5 5 5 1 0 4.64686e-14
d 5 5 5 0.866025 0 -0.5
d 5 5 5 0.5 0 -0.866025
d 5 5 5 0 0 1
d 5 5 5 0.433013 0.25 0.866025
d 5 5 5 0.75 0.433013 0.5
d 5 5 5 0.866025 0.5 4.64686e-14
d 5 5 5 0.75 0.433013 -0.5
d 5 5 5 0.433013 0.25 -0.866025
d 5 5 5 0 0 1
d 5 5 5 0.25 0.433013 0.866025
d 5 5 5 0.433013 0.75 0.5
d 5 5 5 0.5 0.866025 4.64686e-14
d 5 5 5 0.433013 0.75 -0.5
d 5 5 5 0.25 0.433013 -0.866025
d 5 5 5 0 0 1
d 5 5 5 2.32343e-14 0.5 0.866025
d 5 5 5 4.02429e-14 0.866025 0.5
d 5 5 5 4.64686e-14 1 4.64686e-14
d 5 5 5 4.02429e-14 0.866025 -0.5
d 5 5 5 2.32343e-14 0.5 -0.866025
d 5 5 5 -0 0 1
d 5 5 5 -0.25 0.433013 0.866025
d 5 5 5 -0.433013 0.75 0.5
d 5 5 5 -0.5 0.866025 4.64686e-14
d 5 5 5 -0.433013 0.75 -0.5
d 5 5 5 -0.25 0.433013 -0.866025
d 5 5 5 -0 0 1
d 5 5 5 -0.433013 0.25 0.866025
d 5 5 5 -0.75 0.433013 0.5
d 5 5 5 -0.866025 0.5 4.64686e-14
d 5 5 5 -0.75 0.433013 -0.5
d 5 5 5 -0.433013 0.25 -0.866025
d 5 5 5 -0 0 1
d 5 5 5 -0.5 4.64686e-14 0.866025
d 5 5 5 -0.866025 8.04859e-14 0.5
d 5 5 5 -1 9.29371e-14 4.64686e-14
d 5 5 5 -0.866025 8.04859e-14 -0.5
d 5 5 5 -0.5 4.64686e-14 -0.866025
d 5 5 5 -0 -0 1
d 5 5 5 -0.433013 -0.25 0.866025
d 5 5 5 -0.75 -0.433013 0.5
d 5 5 5 -0.866025 -0.5 4.64686e-14
d 5 5 5 -0.75 -0.433013 -0.5
d 5 5 5 -0.433013 -0.25 -0.866025
d 5 5 5 -0 -0 1
d 5 5 5 -0.25 -0.433013 0.866025
d 5 5 5 -0.433013 -0.75 0.5
d 5 5 5 -0.5 -0.866025 4.64686e-14
d 5 5 5 -0.433013 -0.75 -0.5
d 5 5 5 -0.25 -0.433013 -0.866025
d 5 5 5 -0 -0 1
d 5 5 5 -6.98139e-14 -0.5 0.866025
d 5 5 5 -1.20921e-13 -0.866025 0.5
d 5 5 5 -1.39628e-13 -1 4.64686e-14
d 5 5 5 -1.20921e-13 -0.866025 -0.5
d 5 5 5 -6.98139e-14 -0.5 -0.866025
d 5 5 5 0 -0 1
d 5 5 5 0.25 -0.433013 0.866025
d 5 5 5 0.433013 -0.75 0.5
d 5 5 5 0.5 -0.866025 4.64686e-14
d 5 5 5 0.433013 -0.75 -0.5
d 5 5 5 0.25 -0.433013 -0.866025
d 5 5 5 0 -0 1
d 5 5 5 0.433013 -0.25 0.866025
d 5 5 5 0.75 -0.433013 0.5
d 5 5 5 0.866025 -0.5 4.64686e-14
d 5 5 5 0.75 -0.433013 -0.5
d 5 5 5 0.433013 -0.25 -0.866025
