99
Liquid Crystals with Colloide in temperature=0.3, and potential=-3.33661e-22
Sp 1.32038 2.40263 0.472395 -0.23284 -0.219543 0.94741
Sp 1.13387 0.113262 2.44918 0.708454 0.694925 -0.123177
Sp -0.30033 1.27833 1.69517 -0.0223571 0.00807988 0.999717
Sp 0.243332 -0.432376 2.30939 -0.476004 0.674507 -0.564323
Sp 0.46848 1.8807 1.13501 0.59788 -0.39637 -0.696729
Sp 2.4928 0.962332 1.36462 0.812318 0.312887 -0.49218
Sp 0.310354 2.42476 2.02883 -0.871523 -0.342685 -0.350734
Sp 0.386896 0.35119 1.41327 -0.323396 0.43191 0.841943
Sp 0.269844 0.827156 0.418894 0.119319 0.867853 0.48228
Sp -0.230682 0.147204 0.832485 0.94857 0.274069 0.158432
Sp 0.77518 0.0127044 -0.161279 0.276538 0.853105 0.442423
Sp 1.24687 2.37497 2.28412 0.485267 -0.861451 -0.149728
Sp 1.4385 0.492304 1.32021 -0.715003 0.493169 0.495535
Sp 1.58116 1.54834 1.44638 -0.94199 -0.159327 0.295416
Sp 2.19227 0.83484 -0.101954 -0.475334 0.86657 0.152032
Sp 1.25106 0.289375 2.31876 -0.112085 0.986686 -0.117847
Sp 1.07094 2.45811 0.552285 0.0145728 -0.0615235 0.997999
Sp 2.37739 1.69975 0.401566 0.944947 -0.259849 0.198883
Sp 2.27496 0.901371 1.41295 -0.935509 -0.332167 0.120366
Sp 2.29392 2.15504 2.20241 0.0867571 0.996225 -0.0029294
Sp -0.0528673 1.36042 1.3346 -0.0458006 -0.359863 -0.93188
Sp 1.96114 0.487309 1.05983 0.264954 0.756931 0.597374
Sp 2.31363 0.768748 -0.0370038 -0.122488 0.370168 0.920854
Sp 1.98374 1.35666 -0.0229064 0.638454 0.704588 -0.309729
Sp -0.458866 1.19422 0.9574 -0.129591 0.806956 -0.576219
Sp 2.23505 0.401579 2.239 0.996713 0.0715032 0.0380807
Sp -0.137357 0.382854 1.62386 -0.872178 0.480223 0.0932284
d 5 5 5 0 0 1
d 5 5 5 0.5 0 0.866025
d 5 5 5 0.866025 0 0.5
d 5 5 5 1 0 4.64686e-14
d 5 5 5 0.866025 0 -0.5
d 5 5 5 0.5 0 -0.866025
d 5 5 5 0 0 1
d 5 5 5 0.433013 0.25 0.866025
d 5 5 5 0.75 0.433013 0.5
d 5 5 5 0.866025 0.5 4.64686e-14
d 5 5 5 0.75 0.433013 -0.5
d 5 5 5 0.433013 0.25 -0.866025
d 5 5 5 0 0 1
d 5 5 5 0.25 0.433013 0.866025
d 5 5 5 0.433013 0.75 0.5
d 5 5 5 0.5 0.866025 4.64686e-14
d 5 5 5 0.433013 0.75 -0.5
d 5 5 5 0.25 0.433013 -0.866025
d 5 5 5 0 0 1
d 5 5 5 2.32343e-14 0.5 0.866025
d 5 5 5 4.02429e-14 0.866025 0.5
d 5 5 5 4.64686e-14 1 4.64686e-14
d 5 5 5 4.02429e-14 0.866025 -0.5
d 5 5 5 2.32343e-14 0.5 -0.866025
d 5 5 5 -0 0 1
d 5 5 5 -0.25 0.433013 0.866025
d 5 5 5 -0.433013 0.75 0.5
d 5 5 5 -0.5 0.866025 4.64686e-14
d 5 5 5 -0.433013 0.75 -0.5
d 5 5 5 -0.25 0.433013 -0.866025
d 5 5 5 -0 0 1
d 5 5 5 -0.433013 0.25 0.866025
d 5 5 5 -0.75 0.433013 0.5
d 5 5 5 -0.866025 0.5 4.64686e-14
d 5 5 5 -0.75 0.433013 -0.5
d 5 5 5 -0.433013 0.25 -0.866025
d 5 5 5 -0 0 1
d 5 5 5 -0.5 4.64686e-14 0.866025
d 5 5 5 -0.866025 8.04859e-14 0.5
d 5 5 5 -1 9.29371e-14 4.64686e-14
d 5 5 5 -0.866025 8.04859e-14 -0.5
d 5 5 5 -0.5 4.64686e-14 -0.866025
d 5 5 5 -0 -0 1
d 5 5 5 -0.433013 -0.25 0.866025
d 5 5 5 -0.75 -0.433013 0.5
d 5 5 5 -0.866025 -0.5 4.64686e-14
d 5 5 5 -0.75 -0.433013 -0.5
d 5 5 5 -0.433013 -0.25 -0.866025
d 5 5 5 -0 -0 1
d 5 5 5 -0.25 -0.433013 0.866025
d 5 5 5 -0.433013 -0.75 0.5
d 5 5 5 -0.5 -0.866025 4.64686e-14
d 5 5 5 -0.433013 -0.75 -0.5
d 5 5 5 -0.25 -0.433013 -0.866025
d 5 5 5 -0 -0 1
d 5 5 5 -6.98139e-14 -0.5 0.866025
d 5 5 5 -1.20921e-13 -0.866025 0.5
d 5 5 5 -1.39628e-13 -1 4.64686e-14
d 5 5 5 -1.20921e-13 -0.866025 -0.5
d 5 5 5 -6.98139e-14 -0.5 -0.866025
d 5 5 5 0 -0 1
d 5 5 5 0.25 -0.433013 0.866025
d 5 5 5 0.433013 -0.75 0.5
d 5 5 5 0.5 -0.866025 4.64686e-14
d 5 5 5 0.433013 -0.75 -0.5
d 5 5 5 0.25 -0.433013 -0.866025
d 5 5 5 0 -0 1
d 5 5 5 0.433013 -0.25 0.866025
d 5 5 5 0.75 -0.433013 0.5
d 5 5 5 0.866025 -0.5 4.64686e-14
d 5 5 5 0.75 -0.433013 -0.5
d 5 5 5 0.433013 -0.25 -0.866025
