99
Liquid Crystals with Colloide in temperature=0.1, and potential=-4.01562e-22
Sp 1.02703 -0.464143 1.99947 -0.914684 -0.155254 0.373162
Sp 1.13387 0.113262 2.44918 0.708454 0.694925 -0.123177
Sp 1.23564 0.286123 0.214156 0.319224 -0.173988 0.931571
Sp 2.36203 0.287038 2.34851 -0.574462 0.686141 -0.446322
Sp 0.46848 1.8807 1.13501 0.59788 -0.39637 -0.696729
Sp 2.4928 0.962332 1.36462 0.812318 0.312887 -0.49218
Sp 1.95164 -0.33007 0.0320644 -0.770026 -0.203334 -0.604745
Sp 2.35065 -0.22042 0.912206 -0.571638 0.362998 0.735841
Sp 2.23576 0.012079 1.48158 -0.101335 0.980365 0.169161
Sp -0.206696 1.07514 2.15478 0.877319 0.462749 -0.127182
Sp -0.416094 2.42967 0.645597 -0.178992 0.972676 -0.147864
Sp 1.2707 2.14432 2.30033 0.466429 -0.873757 -0.137814
Sp 1.4385 0.492304 1.32021 -0.715003 0.493169 0.495535
Sp 1.77088 1.64941 1.28224 -0.951338 -0.142506 0.273217
Sp 0.581809 0.243438 1.32618 -0.968775 -0.042275 -0.244311
Sp 1.25106 0.289375 2.31876 -0.112085 0.986686 -0.117847
Sp 1.07094 2.45811 0.552285 0.0145728 -0.0615235 0.997999
Sp 2.37739 1.69975 0.401566 0.944947 -0.259849 0.198883
Sp 2.27496 0.901371 1.41295 -0.935509 -0.332167 0.120366
Sp 2.38419 2.43509 1.87066 0.10137 0.9916 -0.0803344
Sp 2.15348 2.02814 0.110826 -0.222154 -0.09928 -0.969944
Sp 1.96114 0.487309 1.05983 0.264954 0.756931 0.597374
Sp 2.31363 0.768748 -0.0370038 -0.122488 0.370168 0.920854
Sp 0.47526 0.572451 1.8786 0.805085 0.350869 -0.478257
Sp -0.326407 -0.0894329 0.138648 -0.0320095 0.813237 -0.581052
Sp -0.222802 0.681532 2.04829 0.992504 0.117945 0.0320179
Sp 0.294484 2.4431 1.09064 -0.938337 0.345503 -0.0123118
d 5 5 5 0 0 1
d 5 5 5 0.5 0 0.866025
d 5 5 5 0.866025 0 0.5
d 5 5 5 1 0 4.64686e-14
d 5 5 5 0.866025 0 -0.5
d 5 5 5 0.5 0 -0.866025
d 5 5 5 0 0 1
d 5 5 5 0.433013 0.25 0.866025
d 5 5 5 0.75 0.433013 0.5
d 5 5 5 0.866025 0.5 4.64686e-14
d 5 5 5 0.75 0.433013 -0.5
d 5 5 5 0.433013 0.25 -0.866025
d 5 5 5 0 0 1
d 5 5 5 0.25 0.433013 0.866025
d 5 5 5 0.433013 0.75 0.5
d 5 5 5 0.5 0.866025 4.64686e-14
d 5 5 5 0.433013 0.75 -0.5
d 5 5 5 0.25 0.433013 -0.866025
d 5 5 5 0 0 1
d 5 5 5 2.32343e-14 0.5 0.866025
d 5 5 5 4.02429e-14 0.866025 0.5
d 5 5 5 4.64686e-14 1 4.64686e-14
d 5 5 5 4.02429e-14 0.866025 -0.5
d 5 5 5 2.32343e-14 0.5 -0.866025
d 5 5 5 -0 0 1
d 5 5 5 -0.25 0.433013 0.866025
d 5 5 5 -0.433013 0.75 0.5
d 5 5 5 -0.5 0.866025 4.64686e-14
d 5 5 5 -0.433013 0.75 -0.5
d 5 5 5 -0.25 0.433013 -0.866025
d 5 5 5 -0 0 1
d 5 5 5 -0.433013 0.25 0.866025
d 5 5 5 -0.75 0.433013 0.5
d 5 5 5 -0.866025 0.5 4.64686e-14
d 5 5 5 -0.75 0.433013 -0.5
d 5 5 5 -0.433013 0.25 -0.866025
d 5 5 5 -0 0 1
d 5 5 5 -0.5 4.64686e-14 0.866025
d 5 5 5 -0.866025 8.04859e-14 0.5
d 5 5 5 -1 9.29371e-14 4.64686e-14
d 5 5 5 -0.866025 8.04859e-14 -0.5
d 5 5 5 -0.5 4.64686e-14 -0.866025
d 5 5 5 -0 -0 1
d 5 5 5 -0.433013 -0.25 0.866025
d 5 5 5 -0.75 -0.433013 0.5
d 5 5 5 -0.866025 -0.5 4.64686e-14
d 5 5 5 -0.75 -0.433013 -0.5
d 5 5 5 -0.433013 -0.25 -0.866025
d 5 5 5 -0 -0 1
d 5 5 5 -0.25 -0.433013 0.866025
d 5 5 5 -0.433013 -0.75 0.5
d 5 5 5 -0.5 -0.866025 4.64686e-14
d 5 5 5 -0.433013 -0.75 -0.5
d 5 5 5 -0.25 -0.433013 -0.866025
d 5 5 5 -0 -0 1
d 5 5 5 -6.98139e-14 -0.5 0.866025
d 5 5 5 -1.20921e-13 -0.866025 0.5
d 5 5 5 -1.39628e-13 -1 4.64686e-14
d 5 5 5 -1.20921e-13 -0.866025 -0.5
d 5 5 5 -6.98139e-14 -0.5 -0.866025
d 5 5 5 0 -0 1
d 5 5 5 0.25 -0.433013 0.866025
d 5 5 5 0.433013 -0.75 0.5
d 5 5 5 0.5 -0.866025 4.64686e-14
d 5 5 5 0.433013 -0.75 -0.5
d 5 5 5 0.25 -0.433013 -0.866025
d 5 5 5 0 -0 1
d 5 5 5 0.433013 -0.25 0.866025
d 5 5 5 0.75 -0.433013 0.5
d 5 5 5 0.866025 -0.5 4.64686e-14
d 5 5 5 0.75 -0.433013 -0.5
d 5 5 5 0.433013 -0.25 -0.866025
