99
Liquid Crystals with Colloide in temperature=2.2, and potential=-6.50199e-23
Sp 0.440051 1.46201 1.83846 0.353519 0.142732 0.924474
Sp 1.88829 0.391204 -0.291727 0.804179 0.587689 -0.0889851
Sp 0.038119 0.585158 2.43829 0.748622 -0.167136 0.641584
Sp 0.229357 0.0857324 0.44304 -0.181173 0.622673 -0.761219
Sp 1.95699 2.41978 -0.0700221 -0.0365827 -0.159014 -0.986598
Sp 1.23983 0.0726806 1.50615 0.882861 0.0817622 0.462462
Sp -0.324435 0.0232663 2.13934 -0.909246 -0.197897 0.366208
Sp 0.836254 2.22084 0.689809 0.272132 -0.545232 0.792885
Sp -0.417416 1.78057 1.66416 0.16607 0.906624 0.387883
Sp 2.28654 2.22514 -0.261378 0.921534 0.379554 0.0819378
Sp 1.33002 -0.115248 1.37825 0.261454 0.824738 0.501448
Sp -0.311079 2.30326 2.24633 0.217082 -0.966832 -0.134576
Sp -0.376603 1.33757 -0.141865 -0.280239 0.537188 0.795547
Sp 0.550232 0.218928 0.0814945 -0.713855 -0.695419 0.0824829
Sp -0.467738 1.44465 2.29452 0.834986 0.529627 -0.149309
Sp 1.94716 0.181906 0.813865 0.0964108 0.96179 0.256253
Sp 0.660528 0.462353 2.13941 -0.306362 0.232669 0.923042
Sp -0.23725 -0.31313 1.35312 0.938526 0.101151 0.330057
Sp 1.91846 -0.0765936 0.0539076 -0.962859 0.0415605 -0.266788
Sp 0.518593 -0.361138 1.93555 0.605404 0.79581 -0.013128
Sp 2.03456 2.46959 0.865487 -0.468651 0.0800489 -0.879749
Sp 0.200533 2.01372 0.301801 0.399072 0.885549 0.23779
Sp 0.39473 -0.319934 0.411173 0.154222 0.875905 0.457171
Sp 1.94235 1.46384 2.08385 0.199043 0.957091 0.210617
Sp -0.263119 0.496874 0.293956 -0.023058 0.851169 -0.524384
Sp -0.0775864 2.04859 1.52385 0.772053 0.484309 0.411558
Sp 0.429305 1.49149 2.26738 -0.501408 0.398794 0.767824
d 5 5 5 0 0 1
d 5 5 5 0.5 0 0.866025
d 5 5 5 0.866025 0 0.5
d 5 5 5 1 0 4.64686e-14
d 5 5 5 0.866025 0 -0.5
d 5 5 5 0.5 0 -0.866025
d 5 5 5 0 0 1
d 5 5 5 0.433013 0.25 0.866025
d 5 5 5 0.75 0.433013 0.5
d 5 5 5 0.866025 0.5 4.64686e-14
d 5 5 5 0.75 0.433013 -0.5
d 5 5 5 0.433013 0.25 -0.866025
d 5 5 5 0 0 1
d 5 5 5 0.25 0.433013 0.866025
d 5 5 5 0.433013 0.75 0.5
d 5 5 5 0.5 0.866025 4.64686e-14
d 5 5 5 0.433013 0.75 -0.5
d 5 5 5 0.25 0.433013 -0.866025
d 5 5 5 0 0 1
d 5 5 5 2.32343e-14 0.5 0.866025
d 5 5 5 4.02429e-14 0.866025 0.5
d 5 5 5 4.64686e-14 1 4.64686e-14
d 5 5 5 4.02429e-14 0.866025 -0.5
d 5 5 5 2.32343e-14 0.5 -0.866025
d 5 5 5 -0 0 1
d 5 5 5 -0.25 0.433013 0.866025
d 5 5 5 -0.433013 0.75 0.5
d 5 5 5 -0.5 0.866025 4.64686e-14
d 5 5 5 -0.433013 0.75 -0.5
d 5 5 5 -0.25 0.433013 -0.866025
d 5 5 5 -0 0 1
d 5 5 5 -0.433013 0.25 0.866025
d 5 5 5 -0.75 0.433013 0.5
d 5 5 5 -0.866025 0.5 4.64686e-14
d 5 5 5 -0.75 0.433013 -0.5
d 5 5 5 -0.433013 0.25 -0.866025
d 5 5 5 -0 0 1
d 5 5 5 -0.5 4.64686e-14 0.866025
d 5 5 5 -0.866025 8.04859e-14 0.5
d 5 5 5 -1 9.29371e-14 4.64686e-14
d 5 5 5 -0.866025 8.04859e-14 -0.5
d 5 5 5 -0.5 4.64686e-14 -0.866025
d 5 5 5 -0 -0 1
d 5 5 5 -0.433013 -0.25 0.866025
d 5 5 5 -0.75 -0.433013 0.5
d 5 5 5 -0.866025 -0.5 4.64686e-14
d 5 5 5 -0.75 -0.433013 -0.5
d 5 5 5 -0.433013 -0.25 -0.866025
d 5 5 5 -0 -0 1
d 5 5 5 -0.25 -0.433013 0.866025
d 5 5 5 -0.433013 -0.75 0.5
d 5 5 5 -0.5 -0.866025 4.64686e-14
d 5 5 5 -0.433013 -0.75 -0.5
d 5 5 5 -0.25 -0.433013 -0.866025
d 5 5 5 -0 -0 1
d 5 5 5 -6.98139e-14 -0.5 0.866025
d 5 5 5 -1.20921e-13 -0.866025 0.5
d 5 5 5 -1.39628e-13 -1 4.64686e-14
d 5 5 5 -1.20921e-13 -0.866025 -0.5
d 5 5 5 -6.98139e-14 -0.5 -0.866025
d 5 5 5 0 -0 1
d 5 5 5 0.25 -0.433013 0.866025
d 5 5 5 0.433013 -0.75 0.5
d 5 5 5 0.5 -0.866025 4.64686e-14
d 5 5 5 0.433013 -0.75 -0.5
d 5 5 5 0.25 -0.433013 -0.866025
d 5 5 5 0 -0 1
d 5 5 5 0.433013 -0.25 0.866025
d 5 5 5 0.75 -0.433013 0.5
d 5 5 5 0.866025 -0.5 4.64686e-14
d 5 5 5 0.75 -0.433013 -0.5
d 5 5 5 0.433013 -0.25 -0.866025
