99
Liquid Crystals with Colloide in temperature=0.5, and potential=-1.04128e-22
Sp -0.117388 0.683926 -0.1155 0.158786 -0.590545 0.79123
Sp 1.51119 -0.201721 0.144706 0.800322 0.597484 0.049977
Sp 1.78005 1.73908 -0.439739 0.518982 0.167583 0.838196
Sp 0.0248545 -0.485361 -0.216886 -0.564492 0.687951 -0.456149
Sp 0.55777 2.17862 0.404225 0.53006 -0.36209 -0.766764
Sp 0.106355 0.156533 1.617 0.906151 0.101426 -0.410613
Sp 0.470891 0.665452 0.430723 -0.988587 -0.143364 0.0462859
Sp 1.36606 1.45431 0.245097 -0.302776 0.209197 0.929819
Sp 2.43032 1.37743 0.353067 0.0568672 0.997597 -0.0395659
Sp 0.743713 0.317562 2.36717 0.87715 0.476725 -0.0578055
Sp 2.08436 0.286067 1.47771 -0.117973 0.729257 0.673992
Sp 0.862136 2.30656 2.01449 0.401556 -0.889574 -0.21774
Sp -0.0310898 -0.355559 0.88621 -0.605177 0.509889 0.611371
Sp 2.04538 1.36856 1.11965 -0.943781 -0.222421 0.244552
Sp 2.07384 0.697903 -0.280611 0.291693 0.951218 0.100495
Sp 1.2585 2.46496 0.414143 -0.0988248 0.981828 0.162009
Sp 0.353223 2.3173 1.34854 -0.187965 -0.0610551 0.980276
Sp -0.347598 0.246654 0.531254 0.946722 0.234456 0.22079
Sp -0.0985641 2.47311 1.70188 -0.714683 -0.674126 0.186501
Sp 2.17468 1.49861 2.42246 0.0735105 0.995731 0.0558125
Sp 2.22821 0.339756 2.35197 -0.222401 0.211714 -0.951691
Sp 0.376315 0.709229 0.694924 0.562238 0.71956 0.40758
Sp 2.40494 1.87476 0.333678 -0.0670106 0.565516 0.82201
Sp -0.199531 1.21994 1.33122 0.221051 0.969969 -0.101468
Sp 0.412984 1.32957 0.537495 0.0928633 0.994479 0.0488701
Sp -0.225805 0.623526 1.8518 0.816263 0.0984532 0.569229
Sp 1.02623 -0.394913 1.24357 -0.887747 0.458846 0.0369527
d 5 5 5 0 0 1
d 5 5 5 0.5 0 0.866025
d 5 5 5 0.866025 0 0.5
d 5 5 5 1 0 4.64686e-14
d 5 5 5 0.866025 0 -0.5
d 5 5 5 0.5 0 -0.866025
d 5 5 5 0 0 1
d 5 5 5 0.433013 0.25 0.866025
d 5 5 5 0.75 0.433013 0.5
d 5 5 5 0.866025 0.5 4.64686e-14
d 5 5 5 0.75 0.433013 -0.5
d 5 5 5 0.433013 0.25 -0.866025
d 5 5 5 0 0 1
d 5 5 5 0.25 0.433013 0.866025
d 5 5 5 0.433013 0.75 0.5
d 5 5 5 0.5 0.866025 4.64686e-14
d 5 5 5 0.433013 0.75 -0.5
d 5 5 5 0.25 0.433013 -0.866025
d 5 5 5 0 0 1
d 5 5 5 2.32343e-14 0.5 0.866025
d 5 5 5 4.02429e-14 0.866025 0.5
d 5 5 5 4.64686e-14 1 4.64686e-14
d 5 5 5 4.02429e-14 0.866025 -0.5
d 5 5 5 2.32343e-14 0.5 -0.866025
d 5 5 5 -0 0 1
d 5 5 5 -0.25 0.433013 0.866025
d 5 5 5 -0.433013 0.75 0.5
d 5 5 5 -0.5 0.866025 4.64686e-14
d 5 5 5 -0.433013 0.75 -0.5
d 5 5 5 -0.25 0.433013 -0.866025
d 5 5 5 -0 0 1
d 5 5 5 -0.433013 0.25 0.866025
d 5 5 5 -0.75 0.433013 0.5
d 5 5 5 -0.866025 0.5 4.64686e-14
d 5 5 5 -0.75 0.433013 -0.5
d 5 5 5 -0.433013 0.25 -0.866025
d 5 5 5 -0 0 1
d 5 5 5 -0.5 4.64686e-14 0.866025
d 5 5 5 -0.866025 8.04859e-14 0.5
d 5 5 5 -1 9.29371e-14 4.64686e-14
d 5 5 5 -0.866025 8.04859e-14 -0.5
d 5 5 5 -0.5 4.64686e-14 -0.866025
d 5 5 5 -0 -0 1
d 5 5 5 -0.433013 -0.25 0.866025
d 5 5 5 -0.75 -0.433013 0.5
d 5 5 5 -0.866025 -0.5 4.64686e-14
d 5 5 5 -0.75 -0.433013 -0.5
d 5 5 5 -0.433013 -0.25 -0.866025
d 5 5 5 -0 -0 1
d 5 5 5 -0.25 -0.433013 0.866025
d 5 5 5 -0.433013 -0.75 0.5
d 5 5 5 -0.5 -0.866025 4.64686e-14
d 5 5 5 -0.433013 -0.75 -0.5
d 5 5 5 -0.25 -0.433013 -0.866025
d 5 5 5 -0 -0 1
d 5 5 5 -6.98139e-14 -0.5 0.866025
d 5 5 5 -1.20921e-13 -0.866025 0.5
d 5 5 5 -1.39628e-13 -1 4.64686e-14
d 5 5 5 -1.20921e-13 -0.866025 -0.5
d 5 5 5 -6.98139e-14 -0.5 -0.866025
d 5 5 5 0 -0 1
d 5 5 5 0.25 -0.433013 0.866025
d 5 5 5 0.433013 -0.75 0.5
d 5 5 5 0.5 -0.866025 4.64686e-14
d 5 5 5 0.433013 -0.75 -0.5
d 5 5 5 0.25 -0.433013 -0.866025
d 5 5 5 0 -0 1
d 5 5 5 0.433013 -0.25 0.866025
d 5 5 5 0.75 -0.433013 0.5
d 5 5 5 0.866025 -0.5 4.64686e-14
d 5 5 5 0.75 -0.433013 -0.5
d 5 5 5 0.433013 -0.25 -0.866025
