99
Liquid Crystals with Colloide in temperature=0.5, and potential=-1.05314e-22
Sp 1.71975 0.976561 -0.298724 -0.118081 -0.556578 0.822361
Sp 1.56341 -0.387162 -0.0319124 0.823763 0.566828 0.0110154
Sp 1.61916 1.53021 -0.14121 0.462307 0.109322 0.879955
Sp -0.450765 2.25984 -0.0880796 -0.669111 0.61415 -0.418462
Sp 0.56994 -0.11721 1.06028 0.637496 -0.220084 -0.738351
Sp -0.494709 1.25329 1.8056 0.832184 0.392065 -0.392115
Sp 1.14637 0.402239 0.530961 -0.968888 -0.234743 0.0784393
Sp 0.910197 1.10205 0.247881 -0.407503 0.112063 0.906302
Sp -0.0111322 1.59939 1.2936 0.175138 0.967598 0.181879
Sp -0.0443792 0.509451 -0.457738 0.809156 0.587527 -0.00883686
Sp 2.43523 -0.482765 1.7384 -0.0526965 0.594085 0.802674
Sp 1.06426 2.14463 2.23375 0.432592 -0.887831 -0.156911
Sp 0.333289 2.30757 0.412149 -0.620266 0.51195 0.594287
Sp 1.84887 1.63455 0.996692 -0.966338 -0.151487 0.207949
Sp 2.49284 0.807793 -0.323206 0.377263 0.922257 0.0843522
Sp 1.4051 0.0262247 0.379684 -0.0584599 0.987371 0.147242
Sp 1.06089 -0.351989 1.43776 -0.00975775 0.0241387 0.999661
Sp 0.316182 -0.324027 0.0120942 0.992693 0.0873656 0.0832326
Sp 2.14232 0.533453 1.34622 -0.909997 -0.403315 0.0961367
Sp 2.31148 1.45331 2.35274 0.108686 0.993321 0.0387287
Sp 2.333 0.645657 -0.308026 -0.208776 0.299651 -0.930925
Sp 0.8384 0.139761 1.13041 0.658592 0.559904 0.502756
Sp 2.31363 0.768748 -0.0370038 -0.122488 0.370168 0.920854
Sp 0.224831 0.946858 1.78302 0.334018 0.942558 0.00398083
Sp 0.197874 1.79848 0.192465 0.0337199 0.9985 -0.0431437
Sp -0.331436 1.01115 1.47042 0.842032 0.208556 0.49748
Sp 0.431416 0.55179 1.47877 -0.822074 0.563723 0.0800688
d 5 5 5 0 0 1
d 5 5 5 0.5 0 0.866025
d 5 5 5 0.866025 0 0.5
d 5 5 5 1 0 4.64686e-14
d 5 5 5 0.866025 0 -0.5
d 5 5 5 0.5 0 -0.866025
d 5 5 5 0 0 1
d 5 5 5 0.433013 0.25 0.866025
d 5 5 5 0.75 0.433013 0.5
d 5 5 5 0.866025 0.5 4.64686e-14
d 5 5 5 0.75 0.433013 -0.5
d 5 5 5 0.433013 0.25 -0.866025
d 5 5 5 0 0 1
d 5 5 5 0.25 0.433013 0.866025
d 5 5 5 0.433013 0.75 0.5
d 5 5 5 0.5 0.866025 4.64686e-14
d 5 5 5 0.433013 0.75 -0.5
d 5 5 5 0.25 0.433013 -0.866025
d 5 5 5 0 0 1
d 5 5 5 2.32343e-14 0.5 0.866025
d 5 5 5 4.02429e-14 0.866025 0.5
d 5 5 5 4.64686e-14 1 4.64686e-14
d 5 5 5 4.02429e-14 0.866025 -0.5
d 5 5 5 2.32343e-14 0.5 -0.866025
d 5 5 5 -0 0 1
d 5 5 5 -0.25 0.433013 0.866025
d 5 5 5 -0.433013 0.75 0.5
d 5 5 5 -0.5 0.866025 4.64686e-14
d 5 5 5 -0.433013 0.75 -0.5
d 5 5 5 -0.25 0.433013 -0.866025
d 5 5 5 -0 0 1
d 5 5 5 -0.433013 0.25 0.866025
d 5 5 5 -0.75 0.433013 0.5
d 5 5 5 -0.866025 0.5 4.64686e-14
d 5 5 5 -0.75 0.433013 -0.5
d 5 5 5 -0.433013 0.25 -0.866025
d 5 5 5 -0 0 1
d 5 5 5 -0.5 4.64686e-14 0.866025
d 5 5 5 -0.866025 8.04859e-14 0.5
d 5 5 5 -1 9.29371e-14 4.64686e-14
d 5 5 5 -0.866025 8.04859e-14 -0.5
d 5 5 5 -0.5 4.64686e-14 -0.866025
d 5 5 5 -0 -0 1
d 5 5 5 -0.433013 -0.25 0.866025
d 5 5 5 -0.75 -0.433013 0.5
d 5 5 5 -0.866025 -0.5 4.64686e-14
d 5 5 5 -0.75 -0.433013 -0.5
d 5 5 5 -0.433013 -0.25 -0.866025
d 5 5 5 -0 -0 1
d 5 5 5 -0.25 -0.433013 0.866025
d 5 5 5 -0.433013 -0.75 0.5
d 5 5 5 -0.5 -0.866025 4.64686e-14
d 5 5 5 -0.433013 -0.75 -0.5
d 5 5 5 -0.25 -0.433013 -0.866025
d 5 5 5 -0 -0 1
d 5 5 5 -6.98139e-14 -0.5 0.866025
d 5 5 5 -1.20921e-13 -0.866025 0.5
d 5 5 5 -1.39628e-13 -1 4.64686e-14
d 5 5 5 -1.20921e-13 -0.866025 -0.5
d 5 5 5 -6.98139e-14 -0.5 -0.866025
d 5 5 5 0 -0 1
d 5 5 5 0.25 -0.433013 0.866025
d 5 5 5 0.433013 -0.75 0.5
d 5 5 5 0.5 -0.866025 4.64686e-14
d 5 5 5 0.433013 -0.75 -0.5
d 5 5 5 0.25 -0.433013 -0.866025
d 5 5 5 0 -0 1
d 5 5 5 0.433013 -0.25 0.866025
d 5 5 5 0.75 -0.433013 0.5
d 5 5 5 0.866025 -0.5 4.64686e-14
d 5 5 5 0.75 -0.433013 -0.5
d 5 5 5 0.433013 -0.25 -0.866025
