99
Liquid Crystals with Colloide in temperature=0.4, and potential=-2.01871e-22
Sp 0.62063 0.342978 -0.416967 -0.369048 -0.663457 0.650868
Sp 1.13387 0.113262 2.44918 0.708454 0.694925 -0.123177
Sp -0.0343988 1.11998 0.638619 0.0415959 0.0254886 0.998809
Sp 0.171874 2.33916 1.69695 -0.465482 0.577515 -0.670673
Sp -0.0633756 -0.413819 0.853398 0.510994 -0.232644 -0.827503
Sp 2.4928 0.962332 1.36462 0.812318 0.312887 -0.49218
Sp 0.797355 2.17178 0.31403 -0.901844 -0.430308 0.0388957
Sp 0.550183 -0.233357 0.238582 -0.418378 0.44525 0.791652
Sp 1.78058 0.429781 0.227898 0.450959 0.775302 0.442202
Sp 0.873996 -0.329356 1.1426 0.89666 0.294753 0.330336
Sp 0.674767 0.04703 -0.200764 0.246429 0.866176 0.434755
Sp 1.21884 2.36958 2.38923 0.481427 -0.86764 -0.124215
Sp 1.22704 0.469114 1.49896 -0.724286 0.459955 0.513665
Sp 2.03523 1.86592 1.3633 -0.945758 -0.09677 0.310124
Sp 1.48183 1.86989 -0.321725 0.0802637 0.993539 0.0802396
Sp 1.35711 0.486796 2.17484 -0.0741334 0.985853 -0.150324
Sp 0.656419 0.31835 2.32605 -0.0901161 0.158467 0.983243
Sp 0.534533 1.70175 0.280231 0.976149 -0.165946 0.139982
Sp 2.27496 0.901371 1.41295 -0.935509 -0.332167 0.120366
Sp 2.31522 1.99827 2.39018 0.0964315 0.994404 0.0431493
Sp 0.189416 2.0579 1.26416 0.0125793 -0.198211 -0.980079
Sp 1.96114 0.487309 1.05983 0.264954 0.756931 0.597374
Sp 2.31363 0.768748 -0.0370038 -0.122488 0.370168 0.920854
Sp 0.0304982 1.1745 0.644821 0.271434 0.930413 -0.246281
Sp 0.377434 1.38692 1.86155 0.071163 0.921872 -0.380905
Sp -0.399586 -0.113659 1.19987 0.879827 -0.0700847 0.470099
Sp 0.274085 0.74818 1.5869 -0.81088 0.576565 0.100233
d 5 5 5 0 0 1
d 5 5 5 0.5 0 0.866025
d 5 5 5 0.866025 0 0.5
d 5 5 5 1 0 4.64686e-14
d 5 5 5 0.866025 0 -0.5
d 5 5 5 0.5 0 -0.866025
d 5 5 5 0 0 1
d 5 5 5 0.433013 0.25 0.866025
d 5 5 5 0.75 0.433013 0.5
d 5 5 5 0.866025 0.5 4.64686e-14
d 5 5 5 0.75 0.433013 -0.5
d 5 5 5 0.433013 0.25 -0.866025
d 5 5 5 0 0 1
d 5 5 5 0.25 0.433013 0.866025
d 5 5 5 0.433013 0.75 0.5
d 5 5 5 0.5 0.866025 4.64686e-14
d 5 5 5 0.433013 0.75 -0.5
d 5 5 5 0.25 0.433013 -0.866025
d 5 5 5 0 0 1
d 5 5 5 2.32343e-14 0.5 0.866025
d 5 5 5 4.02429e-14 0.866025 0.5
d 5 5 5 4.64686e-14 1 4.64686e-14
d 5 5 5 4.02429e-14 0.866025 -0.5
d 5 5 5 2.32343e-14 0.5 -0.866025
d 5 5 5 -0 0 1
d 5 5 5 -0.25 0.433013 0.866025
d 5 5 5 -0.433013 0.75 0.5
d 5 5 5 -0.5 0.866025 4.64686e-14
d 5 5 5 -0.433013 0.75 -0.5
d 5 5 5 -0.25 0.433013 -0.866025
d 5 5 5 -0 0 1
d 5 5 5 -0.433013 0.25 0.866025
d 5 5 5 -0.75 0.433013 0.5
d 5 5 5 -0.866025 0.5 4.64686e-14
d 5 5 5 -0.75 0.433013 -0.5
d 5 5 5 -0.433013 0.25 -0.866025
d 5 5 5 -0 0 1
d 5 5 5 -0.5 4.64686e-14 0.866025
d 5 5 5 -0.866025 8.04859e-14 0.5
d 5 5 5 -1 9.29371e-14 4.64686e-14
d 5 5 5 -0.866025 8.04859e-14 -0.5
d 5 5 5 -0.5 4.64686e-14 -0.866025
d 5 5 5 -0 -0 1
d 5 5 5 -0.433013 -0.25 0.866025
d 5 5 5 -0.75 -0.433013 0.5
d 5 5 5 -0.866025 -0.5 4.64686e-14
d 5 5 5 -0.75 -0.433013 -0.5
d 5 5 5 -0.433013 -0.25 -0.866025
d 5 5 5 -0 -0 1
d 5 5 5 -0.25 -0.433013 0.866025
d 5 5 5 -0.433013 -0.75 0.5
d 5 5 5 -0.5 -0.866025 4.64686e-14
d 5 5 5 -0.433013 -0.75 -0.5
d 5 5 5 -0.25 -0.433013 -0.866025
d 5 5 5 -0 -0 1
d 5 5 5 -6.98139e-14 -0.5 0.866025
d 5 5 5 -1.20921e-13 -0.866025 0.5
d 5 5 5 -1.39628e-13 -1 4.64686e-14
d 5 5 5 -1.20921e-13 -0.866025 -0.5
d 5 5 5 -6.98139e-14 -0.5 -0.866025
d 5 5 5 0 -0 1
d 5 5 5 0.25 -0.433013 0.866025
d 5 5 5 0.433013 -0.75 0.5
d 5 5 5 0.5 -0.866025 4.64686e-14
d 5 5 5 0.433013 -0.75 -0.5
d 5 5 5 0.25 -0.433013 -0.866025
d 5 5 5 0 -0 1
d 5 5 5 0.433013 -0.25 0.866025
d 5 5 5 0.75 -0.433013 0.5
d 5 5 5 0.866025 -0.5 4.64686e-14
d 5 5 5 0.75 -0.433013 -0.5
d 5 5 5 0.433013 -0.25 -0.866025
