99
Liquid Crystals with Colloide in temperature=2, and potential=-2.8168e-23
Sp -0.0901068 1.84031 -0.406823 0.184048 0.19935 0.962489
Sp 1.79769 0.363419 -0.0421408 0.799299 0.600413 -0.0250169
Sp -0.207218 1.80512 0.237205 0.620587 0.141322 0.771297
Sp 2.26708 -0.414552 0.508135 -0.419976 0.494467 -0.761001
Sp 2.12446 1.91393 0.122526 0.00468044 -0.289153 -0.957272
Sp 0.979312 -0.0240986 1.14557 0.908743 0.0671403 0.411921
Sp 0.251446 -0.425586 -0.473723 -0.816959 -0.317561 0.481387
Sp 0.489843 2.05076 1.2942 0.166761 -0.515392 0.840572
Sp 2.46487 1.75987 1.48063 0.141294 0.925602 0.351136
Sp 0.471968 2.26164 -0.435901 0.955623 0.294502 0.00732361
Sp 0.838437 0.404569 1.56695 0.117861 0.86706 0.484062
Sp 0.209287 -0.0460289 0.151608 0.382056 -0.917821 0.107878
Sp 2.21531 1.6551 0.219802 -0.335553 0.540283 0.771686
Sp 0.437266 -0.496838 1.04925 -0.626092 -0.73527 0.259588
Sp -0.148837 2.09878 1.88579 0.767906 0.6021 -0.218625
Sp 1.19152 -0.441851 0.815896 -0.0968194 0.949469 0.298554
Sp 0.452909 0.24662 2.34788 -0.345499 0.170825 0.92274
Sp 1.85076 0.249849 1.65867 0.837934 0.27383 0.472106
Sp 1.2762 -0.28783 2.40573 -0.931952 -0.0148499 -0.362278
Sp -0.02293 0.95942 0.506495 0.338438 0.87899 0.335912
Sp 2.09386 -0.24526 0.0314644 -0.37756 0.132039 -0.916523
Sp -0.440952 1.67421 1.06695 0.259464 0.853022 0.452804
Sp 0.522512 2.24507 0.131528 0.202895 0.871435 0.446581
Sp 2.03084 1.17614 2.4794 0.223424 0.920059 0.321828
Sp -0.0855507 0.041176 0.986593 0.0209361 0.902058 -0.431106
Sp -0.166086 2.15068 1.42081 0.755607 0.522797 0.394642
Sp 0.885982 1.9974 0.205891 -0.296501 0.454095 0.84017
d 5 5 5 0 0 1
d 5 5 5 0.5 0 0.866025
d 5 5 5 0.866025 0 0.5
d 5 5 5 1 0 4.64686e-14
d 5 5 5 0.866025 0 -0.5
d 5 5 5 0.5 0 -0.866025
d 5 5 5 0 0 1
d 5 5 5 0.433013 0.25 0.866025
d 5 5 5 0.75 0.433013 0.5
d 5 5 5 0.866025 0.5 4.64686e-14
d 5 5 5 0.75 0.433013 -0.5
d 5 5 5 0.433013 0.25 -0.866025
d 5 5 5 0 0 1
d 5 5 5 0.25 0.433013 0.866025
d 5 5 5 0.433013 0.75 0.5
d 5 5 5 0.5 0.866025 4.64686e-14
d 5 5 5 0.433013 0.75 -0.5
d 5 5 5 0.25 0.433013 -0.866025
d 5 5 5 0 0 1
d 5 5 5 2.32343e-14 0.5 0.866025
d 5 5 5 4.02429e-14 0.866025 0.5
d 5 5 5 4.64686e-14 1 4.64686e-14
d 5 5 5 4.02429e-14 0.866025 -0.5
d 5 5 5 2.32343e-14 0.5 -0.866025
d 5 5 5 -0 0 1
d 5 5 5 -0.25 0.433013 0.866025
d 5 5 5 -0.433013 0.75 0.5
d 5 5 5 -0.5 0.866025 4.64686e-14
d 5 5 5 -0.433013 0.75 -0.5
d 5 5 5 -0.25 0.433013 -0.866025
d 5 5 5 -0 0 1
d 5 5 5 -0.433013 0.25 0.866025
d 5 5 5 -0.75 0.433013 0.5
d 5 5 5 -0.866025 0.5 4.64686e-14
d 5 5 5 -0.75 0.433013 -0.5
d 5 5 5 -0.433013 0.25 -0.866025
d 5 5 5 -0 0 1
d 5 5 5 -0.5 4.64686e-14 0.866025
d 5 5 5 -0.866025 8.04859e-14 0.5
d 5 5 5 -1 9.29371e-14 4.64686e-14
d 5 5 5 -0.866025 8.04859e-14 -0.5
d 5 5 5 -0.5 4.64686e-14 -0.866025
d 5 5 5 -0 -0 1
d 5 5 5 -0.433013 -0.25 0.866025
d 5 5 5 -0.75 -0.433013 0.5
d 5 5 5 -0.866025 -0.5 4.64686e-14
d 5 5 5 -0.75 -0.433013 -0.5
d 5 5 5 -0.433013 -0.25 -0.866025
d 5 5 5 -0 -0 1
d 5 5 5 -0.25 -0.433013 0.866025
d 5 5 5 -0.433013 -0.75 0.5
d 5 5 5 -0.5 -0.866025 4.64686e-14
d 5 5 5 -0.433013 -0.75 -0.5
d 5 5 5 -0.25 -0.433013 -0.866025
d 5 5 5 -0 -0 1
d 5 5 5 -6.98139e-14 -0.5 0.866025
d 5 5 5 -1.20921e-13 -0.866025 0.5
d 5 5 5 -1.39628e-13 -1 4.64686e-14
d 5 5 5 -1.20921e-13 -0.866025 -0.5
d 5 5 5 -6.98139e-14 -0.5 -0.866025
d 5 5 5 0 -0 1
d 5 5 5 0.25 -0.433013 0.866025
d 5 5 5 0.433013 -0.75 0.5
d 5 5 5 0.5 -0.866025 4.64686e-14
d 5 5 5 0.433013 -0.75 -0.5
d 5 5 5 0.25 -0.433013 -0.866025
d 5 5 5 0 -0 1
d 5 5 5 0.433013 -0.25 0.866025
d 5 5 5 0.75 -0.433013 0.5
d 5 5 5 0.866025 -0.5 4.64686e-14
d 5 5 5 0.75 -0.433013 -0.5
d 5 5 5 0.433013 -0.25 -0.866025
