99
Liquid Crystals with Colloide in temperature=0.4, and potential=-2.4811e-22
Sp 0.398308 0.728149 0.68702 -0.360319 -0.456122 0.81371
Sp 1.13387 0.113262 2.44918 0.708454 0.694925 -0.123177
Sp 0.24938 1.14307 0.658635 0.108858 0.0257347 0.993724
Sp -0.000803102 -0.426111 -0.0400392 -0.572143 0.707062 -0.415591
Sp 0.473349 2.19445 0.59575 0.545919 -0.335579 -0.767698
Sp 2.4928 0.962332 1.36462 0.812318 0.312887 -0.49218
Sp 1.81793 2.27267 -0.0114776 -0.844948 -0.53119 -0.0624539
Sp 1.65792 1.82994 -0.170728 -0.251388 0.330085 0.909861
Sp -0.0700905 2.39621 1.37392 0.128581 0.97781 0.165392
Sp 0.781453 0.675647 0.153083 0.840632 0.525769 0.130015
Sp -0.334584 2.27599 1.94921 0.00868331 0.525155 0.850963
Sp 1.05118 2.13233 2.35937 0.428981 -0.894559 -0.125458
Sp 0.20605 0.29102 0.785953 -0.515952 0.634852 0.575114
Sp 1.84887 1.63455 0.996692 -0.966338 -0.151487 0.207949
Sp 1.68076 1.57889 -0.14861 0.141677 0.983137 0.115628
Sp 2.04145 -0.453509 -0.0134048 0.100592 0.993284 0.0571734
Sp 1.18478 -0.103446 1.61018 0.0195417 0.0825678 0.996394
Sp 0.571749 2.16428 0.48131 0.982551 -0.0380044 0.182068
Sp 2.27496 0.901371 1.41295 -0.935509 -0.332167 0.120366
Sp 2.49474 1.42281 2.33787 0.154577 0.987324 0.0360086
Sp 0.146582 0.37957 2.11916 0.00654817 0.208694 -0.977959
Sp 0.85937 -0.154346 1.7643 0.62439 0.451429 0.637455
Sp 2.31363 0.768748 -0.0370038 -0.122488 0.370168 0.920854
Sp 0.224831 0.946858 1.78302 0.334018 0.942558 0.00398083
Sp -0.263008 1.46021 2.37864 -0.0841864 0.963916 -0.252546
Sp 2.42926 0.125134 1.49169 0.840146 -0.0120009 0.542227
Sp 0.274085 0.74818 1.5869 -0.81088 0.576565 0.100233
d 5 5 5 0 0 1
d 5 5 5 0.5 0 0.866025
d 5 5 5 0.866025 0 0.5
d 5 5 5 1 0 4.64686e-14
d 5 5 5 0.866025 0 -0.5
d 5 5 5 0.5 0 -0.866025
d 5 5 5 0 0 1
d 5 5 5 0.433013 0.25 0.866025
d 5 5 5 0.75 0.433013 0.5
d 5 5 5 0.866025 0.5 4.64686e-14
d 5 5 5 0.75 0.433013 -0.5
d 5 5 5 0.433013 0.25 -0.866025
d 5 5 5 0 0 1
d 5 5 5 0.25 0.433013 0.866025
d 5 5 5 0.433013 0.75 0.5
d 5 5 5 0.5 0.866025 4.64686e-14
d 5 5 5 0.433013 0.75 -0.5
d 5 5 5 0.25 0.433013 -0.866025
d 5 5 5 0 0 1
d 5 5 5 2.32343e-14 0.5 0.866025
d 5 5 5 4.02429e-14 0.866025 0.5
d 5 5 5 4.64686e-14 1 4.64686e-14
d 5 5 5 4.02429e-14 0.866025 -0.5
d 5 5 5 2.32343e-14 0.5 -0.866025
d 5 5 5 -0 0 1
d 5 5 5 -0.25 0.433013 0.866025
d 5 5 5 -0.433013 0.75 0.5
d 5 5 5 -0.5 0.866025 4.64686e-14
d 5 5 5 -0.433013 0.75 -0.5
d 5 5 5 -0.25 0.433013 -0.866025
d 5 5 5 -0 0 1
d 5 5 5 -0.433013 0.25 0.866025
d 5 5 5 -0.75 0.433013 0.5
d 5 5 5 -0.866025 0.5 4.64686e-14
d 5 5 5 -0.75 0.433013 -0.5
d 5 5 5 -0.433013 0.25 -0.866025
d 5 5 5 -0 0 1
d 5 5 5 -0.5 4.64686e-14 0.866025
d 5 5 5 -0.866025 8.04859e-14 0.5
d 5 5 5 -1 9.29371e-14 4.64686e-14
d 5 5 5 -0.866025 8.04859e-14 -0.5
d 5 5 5 -0.5 4.64686e-14 -0.866025
d 5 5 5 -0 -0 1
d 5 5 5 -0.433013 -0.25 0.866025
d 5 5 5 -0.75 -0.433013 0.5
d 5 5 5 -0.866025 -0.5 4.64686e-14
d 5 5 5 -0.75 -0.433013 -0.5
d 5 5 5 -0.433013 -0.25 -0.866025
d 5 5 5 -0 -0 1
d 5 5 5 -0.25 -0.433013 0.866025
d 5 5 5 -0.433013 -0.75 0.5
d 5 5 5 -0.5 -0.866025 4.64686e-14
d 5 5 5 -0.433013 -0.75 -0.5
d 5 5 5 -0.25 -0.433013 -0.866025
d 5 5 5 -0 -0 1
d 5 5 5 -6.98139e-14 -0.5 0.866025
d 5 5 5 -1.20921e-13 -0.866025 0.5
d 5 5 5 -1.39628e-13 -1 4.64686e-14
d 5 5 5 -1.20921e-13 -0.866025 -0.5
d 5 5 5 -6.98139e-14 -0.5 -0.866025
d 5 5 5 0 -0 1
d 5 5 5 0.25 -0.433013 0.866025
d 5 5 5 0.433013 -0.75 0.5
d 5 5 5 0.5 -0.866025 4.64686e-14
d 5 5 5 0.433013 -0.75 -0.5
d 5 5 5 0.25 -0.433013 -0.866025
d 5 5 5 0 -0 1
d 5 5 5 0.433013 -0.25 0.866025
d 5 5 5 0.75 -0.433013 0.5
d 5 5 5 0.866025 -0.5 4.64686e-14
d 5 5 5 0.75 -0.433013 -0.5
d 5 5 5 0.433013 -0.25 -0.866025
