99
Liquid Crystals with Colloide in temperature=0.4, and potential=-2.34902e-22
Sp 0.568278 0.0986587 -0.0911006 -0.344696 -0.661806 0.665731
Sp 1.13387 0.113262 2.44918 0.708454 0.694925 -0.123177
Sp 0.378171 1.13806 0.538473 0.144783 0.0251312 0.989144
Sp -0.262097 2.04761 1.7563 -0.575816 0.502126 -0.645217
Sp 1.3285 0.17698 0.705513 0.724276 -0.084128 -0.684358
Sp 2.4928 0.962332 1.36462 0.812318 0.312887 -0.49218
Sp 1.11542 2.0897 0.044818 -0.878811 -0.47618 -0.0307201
Sp 0.530572 2.41576 0.181248 -0.440601 0.376272 0.81504
Sp 0.444016 -0.344771 2.20984 0.226759 0.91639 0.329863
Sp 0.225253 -0.122343 1.14526 0.845122 0.390533 0.36504
Sp 0.208395 -0.0327667 -0.190316 0.13541 0.87958 0.456074
Sp 1.21884 2.36958 2.38923 0.481427 -0.86764 -0.124215
Sp -0.127536 0.15504 1.1321 -0.555187 0.56 0.614953
Sp 1.78135 1.70472 1.03191 -0.968022 -0.131875 0.213405
Sp 2.09579 1.81355 0.270219 0.228069 0.948193 0.221165
Sp 1.51319 0.252641 2.37608 -0.0400619 0.993119 -0.110048
Sp 0.743092 0.299967 2.22678 -0.0679929 0.160674 0.984663
Sp 0.571749 2.16428 0.48131 0.982551 -0.0380044 0.182068
Sp 2.27496 0.901371 1.41295 -0.935509 -0.332167 0.120366
Sp 2.49474 1.42281 2.33787 0.154577 0.987324 0.0360086
Sp 2.45784 -0.103827 0.910478 -0.157269 0.016062 -0.987425
Sp -0.0688248 0.132788 1.33991 0.476704 0.617511 0.625646
Sp 2.31363 0.768748 -0.0370038 -0.122488 0.370168 0.920854
Sp 0.362201 1.28449 1.22879 0.335136 0.93431 -0.121447
Sp -0.0254744 1.56402 2.29474 -0.0245751 0.963517 -0.266515
Sp 2.42926 0.125134 1.49169 0.840146 -0.0120009 0.542227
Sp 0.274085 0.74818 1.5869 -0.81088 0.576565 0.100233
d 5 5 5 0 0 1
d 5 5 5 0.5 0 0.866025
d 5 5 5 0.866025 0 0.5
d 5 5 5 1 0 4.64686e-14
d 5 5 5 0.866025 0 -0.5
d 5 5 5 0.5 0 -0.866025
d 5 5 5 0 0 1
d 5 5 5 0.433013 0.25 0.866025
d 5 5 5 0.75 0.433013 0.5
d 5 5 5 0.866025 0.5 4.64686e-14
d 5 5 5 0.75 0.433013 -0.5
d 5 5 5 0.433013 0.25 -0.866025
d 5 5 5 0 0 1
d 5 5 5 0.25 0.433013 0.866025
d 5 5 5 0.433013 0.75 0.5
d 5 5 5 0.5 0.866025 4.64686e-14
d 5 5 5 0.433013 0.75 -0.5
d 5 5 5 0.25 0.433013 -0.866025
d 5 5 5 0 0 1
d 5 5 5 2.32343e-14 0.5 0.866025
d 5 5 5 4.02429e-14 0.866025 0.5
d 5 5 5 4.64686e-14 1 4.64686e-14
d 5 5 5 4.02429e-14 0.866025 -0.5
d 5 5 5 2.32343e-14 0.5 -0.866025
d 5 5 5 -0 0 1
d 5 5 5 -0.25 0.433013 0.866025
d 5 5 5 -0.433013 0.75 0.5
d 5 5 5 -0.5 0.866025 4.64686e-14
d 5 5 5 -0.433013 0.75 -0.5
d 5 5 5 -0.25 0.433013 -0.866025
d 5 5 5 -0 0 1
d 5 5 5 -0.433013 0.25 0.866025
d 5 5 5 -0.75 0.433013 0.5
d 5 5 5 -0.866025 0.5 4.64686e-14
d 5 5 5 -0.75 0.433013 -0.5
d 5 5 5 -0.433013 0.25 -0.866025
d 5 5 5 -0 0 1
d 5 5 5 -0.5 4.64686e-14 0.866025
d 5 5 5 -0.866025 8.04859e-14 0.5
d 5 5 5 -1 9.29371e-14 4.64686e-14
d 5 5 5 -0.866025 8.04859e-14 -0.5
d 5 5 5 -0.5 4.64686e-14 -0.866025
d 5 5 5 -0 -0 1
d 5 5 5 -0.433013 -0.25 0.866025
d 5 5 5 -0.75 -0.433013 0.5
d 5 5 5 -0.866025 -0.5 4.64686e-14
d 5 5 5 -0.75 -0.433013 -0.5
d 5 5 5 -0.433013 -0.25 -0.866025
d 5 5 5 -0 -0 1
d 5 5 5 -0.25 -0.433013 0.866025
d 5 5 5 -0.433013 -0.75 0.5
d 5 5 5 -0.5 -0.866025 4.64686e-14
d 5 5 5 -0.433013 -0.75 -0.5
d 5 5 5 -0.25 -0.433013 -0.866025
d 5 5 5 -0 -0 1
d 5 5 5 -6.98139e-14 -0.5 0.866025
d 5 5 5 -1.20921e-13 -0.866025 0.5
d 5 5 5 -1.39628e-13 -1 4.64686e-14
d 5 5 5 -1.20921e-13 -0.866025 -0.5
d 5 5 5 -6.98139e-14 -0.5 -0.866025
d 5 5 5 0 -0 1
d 5 5 5 0.25 -0.433013 0.866025
d 5 5 5 0.433013 -0.75 0.5
d 5 5 5 0.5 -0.866025 4.64686e-14
d 5 5 5 0.433013 -0.75 -0.5
d 5 5 5 0.25 -0.433013 -0.866025
d 5 5 5 0 -0 1
d 5 5 5 0.433013 -0.25 0.866025
d 5 5 5 0.75 -0.433013 0.5
d 5 5 5 0.866025 -0.5 4.64686e-14
d 5 5 5 0.75 -0.433013 -0.5
d 5 5 5 0.433013 -0.25 -0.866025
