99
Liquid Crystals with Colloide in temperature=0.4, and potential=-2.15346e-22
Sp 1.39604 1.85799 0.0989379 -0.222186 -0.359691 0.906232
Sp 1.13387 0.113262 2.44918 0.708454 0.694925 -0.123177
Sp -0.0343988 1.11998 0.638619 0.0415959 0.0254886 0.998809
Sp 0.171874 2.33916 1.69695 -0.465482 0.577515 -0.670673
Sp 0.335877 2.23798 0.880718 0.571678 -0.304622 -0.761834
Sp 2.4928 0.962332 1.36462 0.812318 0.312887 -0.49218
Sp 0.612514 2.32104 0.207366 -0.926323 -0.37668 0.00611064
Sp -0.094061 0.155383 0.78999 -0.481073 0.437403 0.759768
Sp 1.30423 0.103144 -0.212458 0.397162 0.823965 0.404158
Sp 1.7065 0.462842 0.744501 0.893844 0.416082 0.16709
Sp 0.887468 -0.078893 2.44929 0.314577 0.876408 0.364624
Sp 1.21884 2.36958 2.38923 0.481427 -0.86764 -0.124215
Sp 1.4385 0.492304 1.32021 -0.715003 0.493169 0.495535
Sp 1.99057 1.84309 1.26379 -0.953322 -0.102092 0.284173
Sp 1.11369 1.77156 -0.0875872 -0.0180454 0.988898 0.147495
Sp 1.35711 0.486796 2.17484 -0.0741334 0.985853 -0.150324
Sp 0.609342 0.279558 -0.491575 -0.103527 0.134507 0.98549
Sp 0.385247 1.43558 0.521898 0.950492 -0.235375 0.202889
Sp 2.27496 0.901371 1.41295 -0.935509 -0.332167 0.120366
Sp 2.30301 1.94232 2.42068 0.0947094 0.994175 0.051438
Sp 0.280716 1.89054 1.61776 0.0383121 -0.259766 -0.964911
Sp 1.96114 0.487309 1.05983 0.264954 0.756931 0.597374
Sp 2.31363 0.768748 -0.0370038 -0.122488 0.370168 0.920854
Sp 0.0674922 1.48578 0.0617027 0.246318 0.90038 -0.358669
Sp 0.0497451 1.56414 1.66784 -0.0101961 0.913437 -0.406852
Sp 2.25703 0.133301 0.520847 0.928079 -0.00741405 0.37231
Sp 0.274085 0.74818 1.5869 -0.81088 0.576565 0.100233
d 5 5 5 0 0 1
d 5 5 5 0.5 0 0.866025
d 5 5 5 0.866025 0 0.5
d 5 5 5 1 0 4.64686e-14
d 5 5 5 0.866025 0 -0.5
d 5 5 5 0.5 0 -0.866025
d 5 5 5 0 0 1
d 5 5 5 0.433013 0.25 0.866025
d 5 5 5 0.75 0.433013 0.5
d 5 5 5 0.866025 0.5 4.64686e-14
d 5 5 5 0.75 0.433013 -0.5
d 5 5 5 0.433013 0.25 -0.866025
d 5 5 5 0 0 1
d 5 5 5 0.25 0.433013 0.866025
d 5 5 5 0.433013 0.75 0.5
d 5 5 5 0.5 0.866025 4.64686e-14
d 5 5 5 0.433013 0.75 -0.5
d 5 5 5 0.25 0.433013 -0.866025
d 5 5 5 0 0 1
d 5 5 5 2.32343e-14 0.5 0.866025
d 5 5 5 4.02429e-14 0.866025 0.5
d 5 5 5 4.64686e-14 1 4.64686e-14
d 5 5 5 4.02429e-14 0.866025 -0.5
d 5 5 5 2.32343e-14 0.5 -0.866025
d 5 5 5 -0 0 1
d 5 5 5 -0.25 0.433013 0.866025
d 5 5 5 -0.433013 0.75 0.5
d 5 5 5 -0.5 0.866025 4.64686e-14
d 5 5 5 -0.433013 0.75 -0.5
d 5 5 5 -0.25 0.433013 -0.866025
d 5 5 5 -0 0 1
d 5 5 5 -0.433013 0.25 0.866025
d 5 5 5 -0.75 0.433013 0.5
d 5 5 5 -0.866025 0.5 4.64686e-14
d 5 5 5 -0.75 0.433013 -0.5
d 5 5 5 -0.433013 0.25 -0.866025
d 5 5 5 -0 0 1
d 5 5 5 -0.5 4.64686e-14 0.866025
d 5 5 5 -0.866025 8.04859e-14 0.5
d 5 5 5 -1 9.29371e-14 4.64686e-14
d 5 5 5 -0.866025 8.04859e-14 -0.5
d 5 5 5 -0.5 4.64686e-14 -0.866025
d 5 5 5 -0 -0 1
d 5 5 5 -0.433013 -0.25 0.866025
d 5 5 5 -0.75 -0.433013 0.5
d 5 5 5 -0.866025 -0.5 4.64686e-14
d 5 5 5 -0.75 -0.433013 -0.5
d 5 5 5 -0.433013 -0.25 -0.866025
d 5 5 5 -0 -0 1
d 5 5 5 -0.25 -0.433013 0.866025
d 5 5 5 -0.433013 -0.75 0.5
d 5 5 5 -0.5 -0.866025 4.64686e-14
d 5 5 5 -0.433013 -0.75 -0.5
d 5 5 5 -0.25 -0.433013 -0.866025
d 5 5 5 -0 -0 1
d 5 5 5 -6.98139e-14 -0.5 0.866025
d 5 5 5 -1.20921e-13 -0.866025 0.5
d 5 5 5 -1.39628e-13 -1 4.64686e-14
d 5 5 5 -1.20921e-13 -0.866025 -0.5
d 5 5 5 -6.98139e-14 -0.5 -0.866025
d 5 5 5 0 -0 1
d 5 5 5 0.25 -0.433013 0.866025
d 5 5 5 0.433013 -0.75 0.5
d 5 5 5 0.5 -0.866025 4.64686e-14
d 5 5 5 0.433013 -0.75 -0.5
d 5 5 5 0.25 -0.433013 -0.866025
d 5 5 5 0 -0 1
d 5 5 5 0.433013 -0.25 0.866025
d 5 5 5 0.75 -0.433013 0.5
d 5 5 5 0.866025 -0.5 4.64686e-14
d 5 5 5 0.75 -0.433013 -0.5
d 5 5 5 0.433013 -0.25 -0.866025
