99
Liquid Crystals with Colloide in temperature=0.4, and potential=-2.34193e-22
Sp 0.447143 0.409233 -0.297749 -0.402957 -0.629882 0.663984
Sp 1.13387 0.113262 2.44918 0.708454 0.694925 -0.123177
Sp 0.748531 0.787255 0.375056 0.243107 -0.0592802 0.968186
Sp -0.242495 2.22899 1.74197 -0.558262 0.536984 -0.632449
Sp 0.429194 0.468593 0.892379 0.614914 -0.0114925 -0.788511
Sp 2.4928 0.962332 1.36462 0.812318 0.312887 -0.49218
Sp 0.797355 2.17178 0.31403 -0.901844 -0.430308 0.0388957
Sp 0.530572 2.41576 0.181248 -0.440601 0.376272 0.81504
Sp 0.614224 0.461379 -0.419573 0.210293 0.916396 0.34058
Sp 0.780693 -0.215543 0.991682 0.896285 0.328723 0.297683
Sp 0.407702 0.187875 0.220448 0.167679 0.84422 0.509094
Sp 1.21884 2.36958 2.38923 0.481427 -0.86764 -0.124215
Sp 2.40116 0.319884 1.19644 -0.614766 0.543478 0.571572
Sp 2.07483 1.79143 1.3792 -0.941644 -0.115986 0.315996
Sp 1.76563 1.70699 0.344719 0.151293 0.956498 0.249443
Sp 1.35711 0.486796 2.17484 -0.0741334 0.985853 -0.150324
Sp 0.815065 0.49548 2.4669 -0.0468743 0.196453 0.979392
Sp 0.313844 1.90309 0.358524 0.980653 -0.110343 0.161689
Sp 2.27496 0.901371 1.41295 -0.935509 -0.332167 0.120366
Sp 2.31522 1.99827 2.39018 0.0964315 0.994404 0.0431493
Sp -0.311421 -0.102956 1.23956 -0.113862 0.014788 -0.993387
Sp 1.82802 0.258766 1.34486 0.232946 0.703434 0.671504
Sp 2.31363 0.768748 -0.0370038 -0.122488 0.370168 0.920854
Sp -0.0744722 0.92413 1.2757 0.259223 0.958125 -0.121657
Sp 0.313216 1.55558 2.07692 0.0537178 0.946023 -0.319617
Sp 2.42926 0.125134 1.49169 0.840146 -0.0120009 0.542227
Sp 0.274085 0.74818 1.5869 -0.81088 0.576565 0.100233
d 5 5 5 0 0 1
d 5 5 5 0.5 0 0.866025
d 5 5 5 0.866025 0 0.5
d 5 5 5 1 0 4.64686e-14
d 5 5 5 0.866025 0 -0.5
d 5 5 5 0.5 0 -0.866025
d 5 5 5 0 0 1
d 5 5 5 0.433013 0.25 0.866025
d 5 5 5 0.75 0.433013 0.5
d 5 5 5 0.866025 0.5 4.64686e-14
d 5 5 5 0.75 0.433013 -0.5
d 5 5 5 0.433013 0.25 -0.866025
d 5 5 5 0 0 1
d 5 5 5 0.25 0.433013 0.866025
d 5 5 5 0.433013 0.75 0.5
d 5 5 5 0.5 0.866025 4.64686e-14
d 5 5 5 0.433013 0.75 -0.5
d 5 5 5 0.25 0.433013 -0.866025
d 5 5 5 0 0 1
d 5 5 5 2.32343e-14 0.5 0.866025
d 5 5 5 4.02429e-14 0.866025 0.5
d 5 5 5 4.64686e-14 1 4.64686e-14
d 5 5 5 4.02429e-14 0.866025 -0.5
d 5 5 5 2.32343e-14 0.5 -0.866025
d 5 5 5 -0 0 1
d 5 5 5 -0.25 0.433013 0.866025
d 5 5 5 -0.433013 0.75 0.5
d 5 5 5 -0.5 0.866025 4.64686e-14
d 5 5 5 -0.433013 0.75 -0.5
d 5 5 5 -0.25 0.433013 -0.866025
d 5 5 5 -0 0 1
d 5 5 5 -0.433013 0.25 0.866025
d 5 5 5 -0.75 0.433013 0.5
d 5 5 5 -0.866025 0.5 4.64686e-14
d 5 5 5 -0.75 0.433013 -0.5
d 5 5 5 -0.433013 0.25 -0.866025
d 5 5 5 -0 0 1
d 5 5 5 -0.5 4.64686e-14 0.866025
d 5 5 5 -0.866025 8.04859e-14 0.5
d 5 5 5 -1 9.29371e-14 4.64686e-14
d 5 5 5 -0.866025 8.04859e-14 -0.5
d 5 5 5 -0.5 4.64686e-14 -0.866025
d 5 5 5 -0 -0 1
d 5 5 5 -0.433013 -0.25 0.866025
d 5 5 5 -0.75 -0.433013 0.5
d 5 5 5 -0.866025 -0.5 4.64686e-14
d 5 5 5 -0.75 -0.433013 -0.5
d 5 5 5 -0.433013 -0.25 -0.866025
d 5 5 5 -0 -0 1
d 5 5 5 -0.25 -0.433013 0.866025
d 5 5 5 -0.433013 -0.75 0.5
d 5 5 5 -0.5 -0.866025 4.64686e-14
d 5 5 5 -0.433013 -0.75 -0.5
d 5 5 5 -0.25 -0.433013 -0.866025
d 5 5 5 -0 -0 1
d 5 5 5 -6.98139e-14 -0.5 0.866025
d 5 5 5 -1.20921e-13 -0.866025 0.5
d 5 5 5 -1.39628e-13 -1 4.64686e-14
d 5 5 5 -1.20921e-13 -0.866025 -0.5
d 5 5 5 -6.98139e-14 -0.5 -0.866025
d 5 5 5 0 -0 1
d 5 5 5 0.25 -0.433013 0.866025
d 5 5 5 0.433013 -0.75 0.5
d 5 5 5 0.5 -0.866025 4.64686e-14
d 5 5 5 0.433013 -0.75 -0.5
d 5 5 5 0.25 -0.433013 -0.866025
d 5 5 5 0 -0 1
d 5 5 5 0.433013 -0.25 0.866025
d 5 5 5 0.75 -0.433013 0.5
d 5 5 5 0.866025 -0.5 4.64686e-14
d 5 5 5 0.75 -0.433013 -0.5
d 5 5 5 0.433013 -0.25 -0.866025
