99
Liquid Crystals with Colloide in temperature=1.3, and potential=-9.95678e-24
Sp 0.470064 0.58982 0.82701 0.27337 -0.130487 0.953017
Sp 0.251198 0.459731 1.46555 0.556572 0.742641 0.372441
Sp 2.14022 1.5738 -0.0466784 0.547829 0.10032 0.830553
Sp -0.488475 1.00991 0.305594 -0.287406 0.691068 -0.663191
Sp -0.443644 2.26073 0.345362 0.131284 -0.201955 -0.970556
Sp 1.91011 0.120658 0.195663 0.990375 0.0767519 0.11518
Sp 0.829314 0.0867965 2.01986 -0.84896 -0.229254 0.47614
Sp 2.38587 -0.48572 -0.24307 -0.0744611 -0.323129 0.943421
Sp -0.228351 0.663581 1.34491 0.137872 0.97838 0.154158
Sp 2.38623 2.38217 -0.374921 0.919288 0.392419 0.0302837
Sp 2.01686 -0.465943 -0.153975 -0.25821 0.839444 0.478185
Sp 0.792269 0.05849 2.38531 0.51556 -0.850243 -0.10623
Sp 1.23828 1.3047 0.361096 -0.546511 0.401151 0.735122
Sp 0.452175 -0.148046 0.780833 -0.683142 -0.702998 0.197765
Sp -0.241021 1.41145 0.143831 0.448688 0.875124 0.181207
Sp 1.14346 0.99174 -0.155635 -0.0905415 0.99588 -0.00502807
Sp 0.166277 -0.21634 2.44611 -0.371998 0.037766 0.927465
Sp 1.12632 0.458821 1.75029 0.743815 0.364242 0.560417
Sp -0.107142 1.85153 0.744079 -0.983715 -0.178753 0.0187617
Sp -0.404521 1.79881 0.458077 0.163806 0.944402 0.285085
Sp 2.1629 0.0970887 -0.437761 -0.29495 0.15415 -0.942996
Sp 0.327166 1.66418 0.761926 0.454335 0.812982 0.364197
Sp 0.22111 1.17888 1.79855 0.126035 0.58991 0.797572
Sp -0.181826 2.04892 0.44356 0.322868 0.841146 0.433854
Sp 0.248996 2.05636 -0.393724 0.110001 0.974152 -0.1973
Sp 0.179577 1.16485 -0.469582 0.74017 0.224341 0.633893
Sp 1.30863 0.0101195 -0.451371 -0.730029 0.529717 0.431808
d 5 5 5 0 0 1
d 5 5 5 0.5 0 0.866025
d 5 5 5 0.866025 0 0.5
d 5 5 5 1 0 4.64686e-14
d 5 5 5 0.866025 0 -0.5
d 5 5 5 0.5 0 -0.866025
d 5 5 5 0 0 1
d 5 5 5 0.433013 0.25 0.866025
d 5 5 5 0.75 0.433013 0.5
d 5 5 5 0.866025 0.5 4.64686e-14
d 5 5 5 0.75 0.433013 -0.5
d 5 5 5 0.433013 0.25 -0.866025
d 5 5 5 0 0 1
d 5 5 5 0.25 0.433013 0.866025
d 5 5 5 0.433013 0.75 0.5
d 5 5 5 0.5 0.866025 4.64686e-14
d 5 5 5 0.433013 0.75 -0.5
d 5 5 5 0.25 0.433013 -0.866025
d 5 5 5 0 0 1
d 5 5 5 2.32343e-14 0.5 0.866025
d 5 5 5 4.02429e-14 0.866025 0.5
d 5 5 5 4.64686e-14 1 4.64686e-14
d 5 5 5 4.02429e-14 0.866025 -0.5
d 5 5 5 2.32343e-14 0.5 -0.866025
d 5 5 5 -0 0 1
d 5 5 5 -0.25 0.433013 0.866025
d 5 5 5 -0.433013 0.75 0.5
d 5 5 5 -0.5 0.866025 4.64686e-14
d 5 5 5 -0.433013 0.75 -0.5
d 5 5 5 -0.25 0.433013 -0.866025
d 5 5 5 -0 0 1
d 5 5 5 -0.433013 0.25 0.866025
d 5 5 5 -0.75 0.433013 0.5
d 5 5 5 -0.866025 0.5 4.64686e-14
d 5 5 5 -0.75 0.433013 -0.5
d 5 5 5 -0.433013 0.25 -0.866025
d 5 5 5 -0 0 1
d 5 5 5 -0.5 4.64686e-14 0.866025
d 5 5 5 -0.866025 8.04859e-14 0.5
d 5 5 5 -1 9.29371e-14 4.64686e-14
d 5 5 5 -0.866025 8.04859e-14 -0.5
d 5 5 5 -0.5 4.64686e-14 -0.866025
d 5 5 5 -0 -0 1
d 5 5 5 -0.433013 -0.25 0.866025
d 5 5 5 -0.75 -0.433013 0.5
d 5 5 5 -0.866025 -0.5 4.64686e-14
d 5 5 5 -0.75 -0.433013 -0.5
d 5 5 5 -0.433013 -0.25 -0.866025
d 5 5 5 -0 -0 1
d 5 5 5 -0.25 -0.433013 0.866025
d 5 5 5 -0.433013 -0.75 0.5
d 5 5 5 -0.5 -0.866025 4.64686e-14
d 5 5 5 -0.433013 -0.75 -0.5
d 5 5 5 -0.25 -0.433013 -0.866025
d 5 5 5 -0 -0 1
d 5 5 5 -6.98139e-14 -0.5 0.866025
d 5 5 5 -1.20921e-13 -0.866025 0.5
d 5 5 5 -1.39628e-13 -1 4.64686e-14
d 5 5 5 -1.20921e-13 -0.866025 -0.5
d 5 5 5 -6.98139e-14 -0.5 -0.866025
d 5 5 5 0 -0 1
d 5 5 5 0.25 -0.433013 0.866025
d 5 5 5 0.433013 -0.75 0.5
d 5 5 5 0.5 -0.866025 4.64686e-14
d 5 5 5 0.433013 -0.75 -0.5
d 5 5 5 0.25 -0.433013 -0.866025
d 5 5 5 0 -0 1
d 5 5 5 0.433013 -0.25 0.866025
d 5 5 5 0.75 -0.433013 0.5
d 5 5 5 0.866025 -0.5 4.64686e-14
d 5 5 5 0.75 -0.433013 -0.5
d 5 5 5 0.433013 -0.25 -0.866025
