99
Liquid Crystals with Colloide in temperature=1.7, and potential=-3.3794e-23
Sp -0.0732997 1.69726 0.131191 0.160901 0.14727 0.975921
Sp 1.06016 0.123622 0.927525 0.739951 0.633822 0.22526
Sp 2.36127 1.67373 0.340237 0.537539 0.113769 0.835529
Sp -0.153673 -0.213001 0.357196 -0.277213 0.529849 -0.801507
Sp 1.74761 2.07899 -0.311413 -0.081208 -0.21953 -0.97222
Sp 1.44492 0.320396 1.13179 0.923108 0.14198 0.357369
Sp 1.24291 0.00354468 -0.199925 -0.704409 -0.239513 0.668162
Sp -0.368192 -0.390687 1.63337 -0.0382038 -0.381519 0.923571
Sp 2.40657 2.01122 1.57949 0.123491 0.928992 0.348888
Sp -0.463937 2.10614 -0.409854 0.94379 0.329597 0.0250088
Sp -0.00353056 0.785423 2.44452 -0.0861422 0.797581 0.59703
Sp 0.985571 -0.263215 -0.238686 0.515385 -0.85693 0.0070499
Sp 1.90152 1.69976 0.0627375 -0.418939 0.547204 0.724609
Sp 0.654881 -0.0276585 0.628932 -0.664523 -0.723615 0.186524
Sp 0.118607 0.247799 2.33909 0.679372 0.732655 -0.0408689
Sp 1.00652 0.438227 0.691942 -0.142064 0.968888 0.202668
Sp 0.579541 0.222482 -0.232358 -0.281246 0.148405 0.948091
Sp 1.51942 0.439371 1.67296 0.794704 0.338101 0.504116
Sp 0.287385 2.09322 0.300867 -0.986345 -0.140377 -0.0861232
Sp 0.648232 0.33594 0.518564 0.515943 0.783793 0.345648
Sp -0.444879 -0.275001 -0.140629 -0.269482 0.125541 -0.954787
Sp -0.423234 1.70497 0.981937 0.264381 0.861271 0.433952
Sp 0.0570833 1.5307 0.553202 0.108753 0.780563 0.615544
Sp 2.47746 1.64772 -0.102336 0.293617 0.884398 0.362808
Sp -0.0276921 1.48537 2.30641 0.0499109 0.943474 -0.327668
Sp -0.292202 1.95778 -0.117651 0.61336 0.395273 0.683775
Sp 1.46727 -0.0403358 -0.228305 -0.694422 0.523267 0.493933
d 5 5 5 0 0 1
d 5 5 5 0.5 0 0.866025
d 5 5 5 0.866025 0 0.5
d 5 5 5 1 0 4.64686e-14
d 5 5 5 0.866025 0 -0.5
d 5 5 5 0.5 0 -0.866025
d 5 5 5 0 0 1
d 5 5 5 0.433013 0.25 0.866025
d 5 5 5 0.75 0.433013 0.5
d 5 5 5 0.866025 0.5 4.64686e-14
d 5 5 5 0.75 0.433013 -0.5
d 5 5 5 0.433013 0.25 -0.866025
d 5 5 5 0 0 1
d 5 5 5 0.25 0.433013 0.866025
d 5 5 5 0.433013 0.75 0.5
d 5 5 5 0.5 0.866025 4.64686e-14
d 5 5 5 0.433013 0.75 -0.5
d 5 5 5 0.25 0.433013 -0.866025
d 5 5 5 0 0 1
d 5 5 5 2.32343e-14 0.5 0.866025
d 5 5 5 4.02429e-14 0.866025 0.5
d 5 5 5 4.64686e-14 1 4.64686e-14
d 5 5 5 4.02429e-14 0.866025 -0.5
d 5 5 5 2.32343e-14 0.5 -0.866025
d 5 5 5 -0 0 1
d 5 5 5 -0.25 0.433013 0.866025
d 5 5 5 -0.433013 0.75 0.5
d 5 5 5 -0.5 0.866025 4.64686e-14
d 5 5 5 -0.433013 0.75 -0.5
d 5 5 5 -0.25 0.433013 -0.866025
d 5 5 5 -0 0 1
d 5 5 5 -0.433013 0.25 0.866025
d 5 5 5 -0.75 0.433013 0.5
d 5 5 5 -0.866025 0.5 4.64686e-14
d 5 5 5 -0.75 0.433013 -0.5
d 5 5 5 -0.433013 0.25 -0.866025
d 5 5 5 -0 0 1
d 5 5 5 -0.5 4.64686e-14 0.866025
d 5 5 5 -0.866025 8.04859e-14 0.5
d 5 5 5 -1 9.29371e-14 4.64686e-14
d 5 5 5 -0.866025 8.04859e-14 -0.5
d 5 5 5 -0.5 4.64686e-14 -0.866025
d 5 5 5 -0 -0 1
d 5 5 5 -0.433013 -0.25 0.866025
d 5 5 5 -0.75 -0.433013 0.5
d 5 5 5 -0.866025 -0.5 4.64686e-14
d 5 5 5 -0.75 -0.433013 -0.5
d 5 5 5 -0.433013 -0.25 -0.866025
d 5 5 5 -0 -0 1
d 5 5 5 -0.25 -0.433013 0.866025
d 5 5 5 -0.433013 -0.75 0.5
d 5 5 5 -0.5 -0.866025 4.64686e-14
d 5 5 5 -0.433013 -0.75 -0.5
d 5 5 5 -0.25 -0.433013 -0.866025
d 5 5 5 -0 -0 1
d 5 5 5 -6.98139e-14 -0.5 0.866025
d 5 5 5 -1.20921e-13 -0.866025 0.5
d 5 5 5 -1.39628e-13 -1 4.64686e-14
d 5 5 5 -1.20921e-13 -0.866025 -0.5
d 5 5 5 -6.98139e-14 -0.5 -0.866025
d 5 5 5 0 -0 1
d 5 5 5 0.25 -0.433013 0.866025
d 5 5 5 0.433013 -0.75 0.5
d 5 5 5 0.5 -0.866025 4.64686e-14
d 5 5 5 0.433013 -0.75 -0.5
d 5 5 5 0.25 -0.433013 -0.866025
d 5 5 5 0 -0 1
d 5 5 5 0.433013 -0.25 0.866025
d 5 5 5 0.75 -0.433013 0.5
d 5 5 5 0.866025 -0.5 4.64686e-14
d 5 5 5 0.75 -0.433013 -0.5
d 5 5 5 0.433013 -0.25 -0.866025
