99
Liquid Crystals with Colloide in temperature=1.5, and potential=-1.55416e-23
Sp 0.00453226 1.15558 0.134738 0.185587 0.00991785 0.982578
Sp 0.168661 0.64011 1.19059 0.53594 0.787739 0.303703
Sp 2.36127 1.67373 0.340237 0.537539 0.113769 0.835529
Sp -0.432123 0.305178 0.719633 -0.337434 0.643368 -0.68718
Sp 2.00314 2.46059 0.0758126 -0.0232224 -0.136773 -0.99033
Sp 1.56035 0.100594 0.342436 0.982901 0.0829767 0.164379
Sp 0.798478 0.573473 -0.244158 -0.781789 -0.0905253 0.616937
Sp 2.30163 0.252141 -0.349626 -0.10106 -0.160386 0.981867
Sp -0.0143816 1.81359 2.14452 0.257347 0.84331 0.471805
Sp 2.35904 1.87346 2.46442 0.958927 0.28357 -0.00686595
Sp -0.489611 1.76805 -0.399624 -0.168606 0.839646 0.516301
Sp 0.911266 -0.0896603 2.4813 0.52092 -0.850394 -0.0739794
Sp 1.98231 1.76256 0.344692 -0.379633 0.52952 0.758608
Sp 0.577438 -0.342934 1.51755 -0.603555 -0.706523 0.369523
Sp 0.979291 0.396438 2.40349 0.768577 0.63959 -0.0146422
Sp 1.03708 0.898325 -0.337123 -0.121079 0.991376 -0.0501314
Sp 0.997957 -0.185821 0.252261 -0.155308 0.0372832 0.987162
Sp 1.20287 0.317442 1.57317 0.779374 0.336115 0.528775
Sp 0.149686 1.79384 0.841043 -0.976275 -0.210938 0.0489143
Sp -0.211914 1.59101 -0.351545 0.233247 0.968704 0.0849081
Sp 1.67132 0.294518 0.552937 -0.492969 0.257643 -0.831024
Sp -0.397493 2.04 0.538649 0.260444 0.914479 0.309674
Sp -0.317445 0.912678 0.812499 0.0179403 0.680443 0.732581
Sp -0.0374819 1.76157 0.00130587 0.391283 0.844666 0.365289
Sp 0.0694109 1.78373 2.05598 0.0627998 0.936819 -0.34413
Sp 0.0522175 1.40983 2.2588 0.750369 0.295592 0.591246
Sp 1.08953 -0.166192 -0.442707 -0.766513 0.476944 0.430096
d 5 5 5 0 0 1
d 5 5 5 0.5 0 0.866025
d 5 5 5 0.866025 0 0.5
d 5 5 5 1 0 4.64686e-14
d 5 5 5 0.866025 0 -0.5
d 5 5 5 0.5 0 -0.866025
d 5 5 5 0 0 1
d 5 5 5 0.433013 0.25 0.866025
d 5 5 5 0.75 0.433013 0.5
d 5 5 5 0.866025 0.5 4.64686e-14
d 5 5 5 0.75 0.433013 -0.5
d 5 5 5 0.433013 0.25 -0.866025
d 5 5 5 0 0 1
d 5 5 5 0.25 0.433013 0.866025
d 5 5 5 0.433013 0.75 0.5
d 5 5 5 0.5 0.866025 4.64686e-14
d 5 5 5 0.433013 0.75 -0.5
d 5 5 5 0.25 0.433013 -0.866025
d 5 5 5 0 0 1
d 5 5 5 2.32343e-14 0.5 0.866025
d 5 5 5 4.02429e-14 0.866025 0.5
d 5 5 5 4.64686e-14 1 4.64686e-14
d 5 5 5 4.02429e-14 0.866025 -0.5
d 5 5 5 2.32343e-14 0.5 -0.866025
d 5 5 5 -0 0 1
d 5 5 5 -0.25 0.433013 0.866025
d 5 5 5 -0.433013 0.75 0.5
d 5 5 5 -0.5 0.866025 4.64686e-14
d 5 5 5 -0.433013 0.75 -0.5
d 5 5 5 -0.25 0.433013 -0.866025
d 5 5 5 -0 0 1
d 5 5 5 -0.433013 0.25 0.866025
d 5 5 5 -0.75 0.433013 0.5
d 5 5 5 -0.866025 0.5 4.64686e-14
d 5 5 5 -0.75 0.433013 -0.5
d 5 5 5 -0.433013 0.25 -0.866025
d 5 5 5 -0 0 1
d 5 5 5 -0.5 4.64686e-14 0.866025
d 5 5 5 -0.866025 8.04859e-14 0.5
d 5 5 5 -1 9.29371e-14 4.64686e-14
d 5 5 5 -0.866025 8.04859e-14 -0.5
d 5 5 5 -0.5 4.64686e-14 -0.866025
d 5 5 5 -0 -0 1
d 5 5 5 -0.433013 -0.25 0.866025
d 5 5 5 -0.75 -0.433013 0.5
d 5 5 5 -0.866025 -0.5 4.64686e-14
d 5 5 5 -0.75 -0.433013 -0.5
d 5 5 5 -0.433013 -0.25 -0.866025
d 5 5 5 -0 -0 1
d 5 5 5 -0.25 -0.433013 0.866025
d 5 5 5 -0.433013 -0.75 0.5
d 5 5 5 -0.5 -0.866025 4.64686e-14
d 5 5 5 -0.433013 -0.75 -0.5
d 5 5 5 -0.25 -0.433013 -0.866025
d 5 5 5 -0 -0 1
d 5 5 5 -6.98139e-14 -0.5 0.866025
d 5 5 5 -1.20921e-13 -0.866025 0.5
d 5 5 5 -1.39628e-13 -1 4.64686e-14
d 5 5 5 -1.20921e-13 -0.866025 -0.5
d 5 5 5 -6.98139e-14 -0.5 -0.866025
d 5 5 5 0 -0 1
d 5 5 5 0.25 -0.433013 0.866025
d 5 5 5 0.433013 -0.75 0.5
d 5 5 5 0.5 -0.866025 4.64686e-14
d 5 5 5 0.433013 -0.75 -0.5
d 5 5 5 0.25 -0.433013 -0.866025
d 5 5 5 0 -0 1
d 5 5 5 0.433013 -0.25 0.866025
d 5 5 5 0.75 -0.433013 0.5
d 5 5 5 0.866025 -0.5 4.64686e-14
d 5 5 5 0.75 -0.433013 -0.5
d 5 5 5 0.433013 -0.25 -0.866025
