99
Liquid Crystals with Colloide in temperature=0.2, and potential=-3.66475e-22
Sp 0.277179 -0.301253 0.927658 -0.424074 -0.12856 0.896456
Sp 1.13387 0.113262 2.44918 0.708454 0.694925 -0.123177
Sp -0.458165 1.70572 1.66037 -0.0640511 0.116494 0.991124
Sp 2.36203 0.287038 2.34851 -0.574462 0.686141 -0.446322
Sp 0.46848 1.8807 1.13501 0.59788 -0.39637 -0.696729
Sp 2.4928 0.962332 1.36462 0.812318 0.312887 -0.49218
Sp 0.325458 2.16428 2.49589 -0.881769 -0.41404 -0.225951
Sp 2.35179 0.393486 0.575617 -0.598662 0.463103 0.653559
Sp 0.438979 0.0965483 0.655103 0.176054 0.777083 0.604274
Sp 1.77561 0.297282 -0.232118 0.92526 0.371776 -0.0753421
Sp 2.13159 0.595951 -0.0451826 -0.12675 0.901569 0.413651
Sp 1.28447 2.24743 2.23336 0.478409 -0.863974 -0.157078
Sp 1.4385 0.492304 1.32021 -0.715003 0.493169 0.495535
Sp 1.58116 1.54834 1.44638 -0.94199 -0.159327 0.295416
Sp 0.907207 2.42708 -0.0933657 -0.82909 0.532123 0.171625
Sp 1.25106 0.289375 2.31876 -0.112085 0.986686 -0.117847
Sp 1.07094 2.45811 0.552285 0.0145728 -0.0615235 0.997999
Sp 2.37739 1.69975 0.401566 0.944947 -0.259849 0.198883
Sp 2.27496 0.901371 1.41295 -0.935509 -0.332167 0.120366
Sp 2.28561 2.08024 2.21364 0.0863037 0.996269 -0.000122386
Sp -0.0528673 1.36042 1.3346 -0.0458006 -0.359863 -0.93188
Sp 1.96114 0.487309 1.05983 0.264954 0.756931 0.597374
Sp 2.31363 0.768748 -0.0370038 -0.122488 0.370168 0.920854
Sp -0.218449 1.2508 2.1799 0.700345 0.55673 -0.446731
Sp -0.329689 2.09374 1.39091 -0.0938591 0.911809 -0.399744
Sp 1.01442 -0.496685 1.82559 0.980231 -0.177578 -0.0872512
Sp 0.633808 0.0428695 1.64046 -0.858752 0.498317 0.119269
d 5 5 5 0 0 1
d 5 5 5 0.5 0 0.866025
d 5 5 5 0.866025 0 0.5
d 5 5 5 1 0 4.64686e-14
d 5 5 5 0.866025 0 -0.5
d 5 5 5 0.5 0 -0.866025
d 5 5 5 0 0 1
d 5 5 5 0.433013 0.25 0.866025
d 5 5 5 0.75 0.433013 0.5
d 5 5 5 0.866025 0.5 4.64686e-14
d 5 5 5 0.75 0.433013 -0.5
d 5 5 5 0.433013 0.25 -0.866025
d 5 5 5 0 0 1
d 5 5 5 0.25 0.433013 0.866025
d 5 5 5 0.433013 0.75 0.5
d 5 5 5 0.5 0.866025 4.64686e-14
d 5 5 5 0.433013 0.75 -0.5
d 5 5 5 0.25 0.433013 -0.866025
d 5 5 5 0 0 1
d 5 5 5 2.32343e-14 0.5 0.866025
d 5 5 5 4.02429e-14 0.866025 0.5
d 5 5 5 4.64686e-14 1 4.64686e-14
d 5 5 5 4.02429e-14 0.866025 -0.5
d 5 5 5 2.32343e-14 0.5 -0.866025
d 5 5 5 -0 0 1
d 5 5 5 -0.25 0.433013 0.866025
d 5 5 5 -0.433013 0.75 0.5
d 5 5 5 -0.5 0.866025 4.64686e-14
d 5 5 5 -0.433013 0.75 -0.5
d 5 5 5 -0.25 0.433013 -0.866025
d 5 5 5 -0 0 1
d 5 5 5 -0.433013 0.25 0.866025
d 5 5 5 -0.75 0.433013 0.5
d 5 5 5 -0.866025 0.5 4.64686e-14
d 5 5 5 -0.75 0.433013 -0.5
d 5 5 5 -0.433013 0.25 -0.866025
d 5 5 5 -0 0 1
d 5 5 5 -0.5 4.64686e-14 0.866025
d 5 5 5 -0.866025 8.04859e-14 0.5
d 5 5 5 -1 9.29371e-14 4.64686e-14
d 5 5 5 -0.866025 8.04859e-14 -0.5
d 5 5 5 -0.5 4.64686e-14 -0.866025
d 5 5 5 -0 -0 1
d 5 5 5 -0.433013 -0.25 0.866025
d 5 5 5 -0.75 -0.433013 0.5
d 5 5 5 -0.866025 -0.5 4.64686e-14
d 5 5 5 -0.75 -0.433013 -0.5
d 5 5 5 -0.433013 -0.25 -0.866025
d 5 5 5 -0 -0 1
d 5 5 5 -0.25 -0.433013 0.866025
d 5 5 5 -0.433013 -0.75 0.5
d 5 5 5 -0.5 -0.866025 4.64686e-14
d 5 5 5 -0.433013 -0.75 -0.5
d 5 5 5 -0.25 -0.433013 -0.866025
d 5 5 5 -0 -0 1
d 5 5 5 -6.98139e-14 -0.5 0.866025
d 5 5 5 -1.20921e-13 -0.866025 0.5
d 5 5 5 -1.39628e-13 -1 4.64686e-14
d 5 5 5 -1.20921e-13 -0.866025 -0.5
d 5 5 5 -6.98139e-14 -0.5 -0.866025
d 5 5 5 0 -0 1
d 5 5 5 0.25 -0.433013 0.866025
d 5 5 5 0.433013 -0.75 0.5
d 5 5 5 0.5 -0.866025 4.64686e-14
d 5 5 5 0.433013 -0.75 -0.5
d 5 5 5 0.25 -0.433013 -0.866025
d 5 5 5 0 -0 1
d 5 5 5 0.433013 -0.25 0.866025
d 5 5 5 0.75 -0.433013 0.5
d 5 5 5 0.866025 -0.5 4.64686e-14
d 5 5 5 0.75 -0.433013 -0.5
d 5 5 5 0.433013 -0.25 -0.866025
