99
Liquid Crystals with Colloide in temperature=0.5, and potential=-7.39532e-23
Sp 0.42387 1.47689 -0.39592 0.316423 -0.469487 0.824293
Sp 0.680098 0.105195 -0.472907 0.677064 0.729577 -0.0964491
Sp 1.63928 1.67359 -0.208515 0.468483 0.146268 0.871281
Sp -0.0214369 1.36478 0.579797 -0.750851 0.543494 -0.375283
Sp 0.0239941 1.99328 -0.0217414 0.383254 -0.388709 -0.837867
Sp 0.999296 -0.17773 2.12372 0.974539 0.00514217 -0.22416
Sp -0.107779 2.02641 1.19252 -0.871816 -0.453851 0.184272
Sp 1.3719 1.44344 0.446189 -0.287401 0.196866 0.93736
Sp 2.28953 1.3374 -0.423165 0.0323937 0.967083 -0.252391
Sp 0.886229 0.235171 2.20054 0.88956 0.445069 -0.102939
Sp 1.55314 0.211114 1.04743 -0.258535 0.752224 0.606069
Sp 0.717655 2.09109 2.08362 0.356763 -0.915211 -0.187373
Sp 0.342272 2.26178 0.42253 -0.624224 0.504856 0.596209
Sp 1.99326 1.12163 1.05428 -0.934863 -0.27766 0.221215
Sp 1.07503 1.83246 0.0301635 0.00127561 0.987999 0.154457
Sp 1.21899 0.0534065 0.402186 -0.0990054 0.986163 0.132965
Sp 0.265877 -0.213846 0.0466536 -0.275711 0.0461333 0.960133
Sp 1.88576 0.25073 0.933182 0.888311 0.285338 0.359842
Sp -0.475632 0.998564 -0.355266 -0.843115 -0.32876 0.425527
Sp 2.17468 1.49861 2.42246 0.0735105 0.995731 0.0558125
Sp 2.36795 0.490612 2.11589 -0.179329 0.241844 -0.9536
Sp 0.13326 1.09186 0.387281 0.49442 0.80422 0.329816
Sp 2.36325 1.62243 -0.076909 -0.0926422 0.564884 0.819954
Sp -0.382813 1.0973 0.911187 0.170561 0.96273 -0.209903
Sp 1.91789 1.57641 0.300077 -0.256661 0.966489 -0.00481531
Sp 0.761868 0.207241 1.87666 0.883745 -0.0198364 0.467549
Sp 0.94409 -0.477871 1.04655 -0.9008 0.434046 -0.012792
d 5 5 5 0 0 1
d 5 5 5 0.5 0 0.866025
d 5 5 5 0.866025 0 0.5
d 5 5 5 1 0 4.64686e-14
d 5 5 5 0.866025 0 -0.5
d 5 5 5 0.5 0 -0.866025
d 5 5 5 0 0 1
d 5 5 5 0.433013 0.25 0.866025
d 5 5 5 0.75 0.433013 0.5
d 5 5 5 0.866025 0.5 4.64686e-14
d 5 5 5 0.75 0.433013 -0.5
d 5 5 5 0.433013 0.25 -0.866025
d 5 5 5 0 0 1
d 5 5 5 0.25 0.433013 0.866025
d 5 5 5 0.433013 0.75 0.5
d 5 5 5 0.5 0.866025 4.64686e-14
d 5 5 5 0.433013 0.75 -0.5
d 5 5 5 0.25 0.433013 -0.866025
d 5 5 5 0 0 1
d 5 5 5 2.32343e-14 0.5 0.866025
d 5 5 5 4.02429e-14 0.866025 0.5
d 5 5 5 4.64686e-14 1 4.64686e-14
d 5 5 5 4.02429e-14 0.866025 -0.5
d 5 5 5 2.32343e-14 0.5 -0.866025
d 5 5 5 -0 0 1
d 5 5 5 -0.25 0.433013 0.866025
d 5 5 5 -0.433013 0.75 0.5
d 5 5 5 -0.5 0.866025 4.64686e-14
d 5 5 5 -0.433013 0.75 -0.5
d 5 5 5 -0.25 0.433013 -0.866025
d 5 5 5 -0 0 1
d 5 5 5 -0.433013 0.25 0.866025
d 5 5 5 -0.75 0.433013 0.5
d 5 5 5 -0.866025 0.5 4.64686e-14
d 5 5 5 -0.75 0.433013 -0.5
d 5 5 5 -0.433013 0.25 -0.866025
d 5 5 5 -0 0 1
d 5 5 5 -0.5 4.64686e-14 0.866025
d 5 5 5 -0.866025 8.04859e-14 0.5
d 5 5 5 -1 9.29371e-14 4.64686e-14
d 5 5 5 -0.866025 8.04859e-14 -0.5
d 5 5 5 -0.5 4.64686e-14 -0.866025
d 5 5 5 -0 -0 1
d 5 5 5 -0.433013 -0.25 0.866025
d 5 5 5 -0.75 -0.433013 0.5
d 5 5 5 -0.866025 -0.5 4.64686e-14
d 5 5 5 -0.75 -0.433013 -0.5
d 5 5 5 -0.433013 -0.25 -0.866025
d 5 5 5 -0 -0 1
d 5 5 5 -0.25 -0.433013 0.866025
d 5 5 5 -0.433013 -0.75 0.5
d 5 5 5 -0.5 -0.866025 4.64686e-14
d 5 5 5 -0.433013 -0.75 -0.5
d 5 5 5 -0.25 -0.433013 -0.866025
d 5 5 5 -0 -0 1
d 5 5 5 -6.98139e-14 -0.5 0.866025
d 5 5 5 -1.20921e-13 -0.866025 0.5
d 5 5 5 -1.39628e-13 -1 4.64686e-14
d 5 5 5 -1.20921e-13 -0.866025 -0.5
d 5 5 5 -6.98139e-14 -0.5 -0.866025
d 5 5 5 0 -0 1
d 5 5 5 0.25 -0.433013 0.866025
d 5 5 5 0.433013 -0.75 0.5
d 5 5 5 0.5 -0.866025 4.64686e-14
d 5 5 5 0.433013 -0.75 -0.5
d 5 5 5 0.25 -0.433013 -0.866025
d 5 5 5 0 -0 1
d 5 5 5 0.433013 -0.25 0.866025
d 5 5 5 0.75 -0.433013 0.5
d 5 5 5 0.866025 -0.5 4.64686e-14
d 5 5 5 0.75 -0.433013 -0.5
d 5 5 5 0.433013 -0.25 -0.866025
