99
Liquid Crystals with Colloide in temperature=0.3, and potential=-2.74201e-22
Sp 1.52956 1.8358 0.278084 -0.187824 -0.351952 0.91698
Sp 1.13387 0.113262 2.44918 0.708454 0.694925 -0.123177
Sp -0.371515 1.50302 1.77792 -0.0412598 0.0813246 0.995833
Sp 0.318898 2.37974 2.04094 -0.456695 0.626975 -0.631136
Sp 0.46848 1.8807 1.13501 0.59788 -0.39637 -0.696729
Sp 2.4928 0.962332 1.36462 0.812318 0.312887 -0.49218
Sp -0.21225 0.159919 0.00315135 -0.990718 -0.131469 -0.0345453
Sp 0.348579 0.0185372 1.0052 -0.376011 0.41623 0.82787
Sp 1.56584 -0.300646 -0.391012 0.486213 0.783695 0.386548
Sp 1.7065 0.462842 0.744501 0.893844 0.416082 0.16709
Sp 0.913223 0.451195 2.31949 0.289369 0.911229 0.293132
Sp 1.23581 2.39508 2.33993 0.486572 -0.862864 -0.136794
Sp 1.4385 0.492304 1.32021 -0.715003 0.493169 0.495535
Sp 1.83969 1.62866 1.23897 -0.951974 -0.149753 0.267058
Sp 1.01837 1.35646 -0.353625 -0.0427893 0.994486 0.0957467
Sp 1.25106 0.289375 2.31876 -0.112085 0.986686 -0.117847
Sp 1.23272 -0.0966788 2.45451 0.0722535 0.0432478 0.996448
Sp -0.43968 1.64073 -0.0904101 0.962066 -0.261808 0.0767128
Sp 2.27496 0.901371 1.41295 -0.935509 -0.332167 0.120366
Sp 2.38824 2.07126 2.19857 0.111941 0.993707 -0.00394312
Sp 0.280716 1.89054 1.61776 0.0383121 -0.259766 -0.964911
Sp 1.96114 0.487309 1.05983 0.264954 0.756931 0.597374
Sp 2.31363 0.768748 -0.0370038 -0.122488 0.370168 0.920854
Sp 0.66333 1.67293 -0.386479 0.350986 0.831097 -0.431378
Sp -0.0918374 1.68311 1.46804 -0.0436832 0.899497 -0.434737
Sp -0.136788 0.865612 0.541338 0.936346 0.156653 0.31419
Sp -0.0835111 0.447389 1.61385 -0.86933 0.483371 0.103042
d 5 5 5 0 0 1
d 5 5 5 0.5 0 0.866025
d 5 5 5 0.866025 0 0.5
d 5 5 5 1 0 4.64686e-14
d 5 5 5 0.866025 0 -0.5
d 5 5 5 0.5 0 -0.866025
d 5 5 5 0 0 1
d 5 5 5 0.433013 0.25 0.866025
d 5 5 5 0.75 0.433013 0.5
d 5 5 5 0.866025 0.5 4.64686e-14
d 5 5 5 0.75 0.433013 -0.5
d 5 5 5 0.433013 0.25 -0.866025
d 5 5 5 0 0 1
d 5 5 5 0.25 0.433013 0.866025
d 5 5 5 0.433013 0.75 0.5
d 5 5 5 0.5 0.866025 4.64686e-14
d 5 5 5 0.433013 0.75 -0.5
d 5 5 5 0.25 0.433013 -0.866025
d 5 5 5 0 0 1
d 5 5 5 2.32343e-14 0.5 0.866025
d 5 5 5 4.02429e-14 0.866025 0.5
d 5 5 5 4.64686e-14 1 4.64686e-14
d 5 5 5 4.02429e-14 0.866025 -0.5
d 5 5 5 2.32343e-14 0.5 -0.866025
d 5 5 5 -0 0 1
d 5 5 5 -0.25 0.433013 0.866025
d 5 5 5 -0.433013 0.75 0.5
d 5 5 5 -0.5 0.866025 4.64686e-14
d 5 5 5 -0.433013 0.75 -0.5
d 5 5 5 -0.25 0.433013 -0.866025
d 5 5 5 -0 0 1
d 5 5 5 -0.433013 0.25 0.866025
d 5 5 5 -0.75 0.433013 0.5
d 5 5 5 -0.866025 0.5 4.64686e-14
d 5 5 5 -0.75 0.433013 -0.5
d 5 5 5 -0.433013 0.25 -0.866025
d 5 5 5 -0 0 1
d 5 5 5 -0.5 4.64686e-14 0.866025
d 5 5 5 -0.866025 8.04859e-14 0.5
d 5 5 5 -1 9.29371e-14 4.64686e-14
d 5 5 5 -0.866025 8.04859e-14 -0.5
d 5 5 5 -0.5 4.64686e-14 -0.866025
d 5 5 5 -0 -0 1
d 5 5 5 -0.433013 -0.25 0.866025
d 5 5 5 -0.75 -0.433013 0.5
d 5 5 5 -0.866025 -0.5 4.64686e-14
d 5 5 5 -0.75 -0.433013 -0.5
d 5 5 5 -0.433013 -0.25 -0.866025
d 5 5 5 -0 -0 1
d 5 5 5 -0.25 -0.433013 0.866025
d 5 5 5 -0.433013 -0.75 0.5
d 5 5 5 -0.5 -0.866025 4.64686e-14
d 5 5 5 -0.433013 -0.75 -0.5
d 5 5 5 -0.25 -0.433013 -0.866025
d 5 5 5 -0 -0 1
d 5 5 5 -6.98139e-14 -0.5 0.866025
d 5 5 5 -1.20921e-13 -0.866025 0.5
d 5 5 5 -1.39628e-13 -1 4.64686e-14
d 5 5 5 -1.20921e-13 -0.866025 -0.5
d 5 5 5 -6.98139e-14 -0.5 -0.866025
d 5 5 5 0 -0 1
d 5 5 5 0.25 -0.433013 0.866025
d 5 5 5 0.433013 -0.75 0.5
d 5 5 5 0.5 -0.866025 4.64686e-14
d 5 5 5 0.433013 -0.75 -0.5
d 5 5 5 0.25 -0.433013 -0.866025
d 5 5 5 0 -0 1
d 5 5 5 0.433013 -0.25 0.866025
d 5 5 5 0.75 -0.433013 0.5
d 5 5 5 0.866025 -0.5 4.64686e-14
d 5 5 5 0.75 -0.433013 -0.5
d 5 5 5 0.433013 -0.25 -0.866025
