99
Liquid Crystals with Colloide in temperature=0.3, and potential=-2.10017e-22
Sp 1.55978 1.69086 -0.257751 -0.200151 -0.430413 0.880161
Sp 1.13387 0.113262 2.44918 0.708454 0.694925 -0.123177
Sp -0.22325 1.65348 1.48621 -0.00874906 0.129737 0.99151
Sp 0.430687 2.32443 1.71492 -0.414762 0.593854 -0.689427
Sp -0.0471369 1.83043 1.07284 0.505279 -0.428454 -0.74908
Sp 2.4928 0.962332 1.36462 0.812318 0.312887 -0.49218
Sp 0.188636 -0.221145 -0.0621057 -0.96958 -0.238708 -0.0541627
Sp -0.094061 0.155383 0.78999 -0.481073 0.437403 0.759768
Sp 1.32645 -0.179888 2.48653 0.435843 0.823253 0.363724
Sp 1.7065 0.462842 0.744501 0.893844 0.416082 0.16709
Sp 0.763331 0.346372 2.38889 0.260253 0.91134 0.318947
Sp 1.21884 2.36958 2.38923 0.481427 -0.86764 -0.124215
Sp 1.4385 0.492304 1.32021 -0.715003 0.493169 0.495535
Sp 1.9459 1.82026 1.16428 -0.960133 -0.107312 0.258125
Sp 1.22008 1.44553 -0.475308 0.00844675 0.997945 0.063515
Sp 1.02361 0.103816 2.44885 -0.173536 0.980693 -0.09015
Sp 1.60528 0.361836 2.4494 0.162486 0.155598 0.974365
Sp 2.27043 1.82931 -0.150251 0.969221 -0.235623 0.0713557
Sp 2.27496 0.901371 1.41295 -0.935509 -0.332167 0.120366
Sp 2.30301 1.94232 2.42068 0.0947094 0.994175 0.051438
Sp 0.280716 1.89054 1.61776 0.0383121 -0.259766 -0.964911
Sp 1.96114 0.487309 1.05983 0.264954 0.756931 0.597374
Sp 2.31363 0.768748 -0.0370038 -0.122488 0.370168 0.920854
Sp 0.31775 1.66212 -0.21224 0.281578 0.872195 -0.399986
Sp -0.204988 1.30466 1.47076 -0.0770261 0.877971 -0.472476
Sp -0.338857 0.729164 0.910038 0.902536 0.125336 0.411971
Sp 0.274085 0.74818 1.5869 -0.81088 0.576565 0.100233
d 5 5 5 0 0 1
d 5 5 5 0.5 0 0.866025
d 5 5 5 0.866025 0 0.5
d 5 5 5 1 0 4.64686e-14
d 5 5 5 0.866025 0 -0.5
d 5 5 5 0.5 0 -0.866025
d 5 5 5 0 0 1
d 5 5 5 0.433013 0.25 0.866025
d 5 5 5 0.75 0.433013 0.5
d 5 5 5 0.866025 0.5 4.64686e-14
d 5 5 5 0.75 0.433013 -0.5
d 5 5 5 0.433013 0.25 -0.866025
d 5 5 5 0 0 1
d 5 5 5 0.25 0.433013 0.866025
d 5 5 5 0.433013 0.75 0.5
d 5 5 5 0.5 0.866025 4.64686e-14
d 5 5 5 0.433013 0.75 -0.5
d 5 5 5 0.25 0.433013 -0.866025
d 5 5 5 0 0 1
d 5 5 5 2.32343e-14 0.5 0.866025
d 5 5 5 4.02429e-14 0.866025 0.5
d 5 5 5 4.64686e-14 1 4.64686e-14
d 5 5 5 4.02429e-14 0.866025 -0.5
d 5 5 5 2.32343e-14 0.5 -0.866025
d 5 5 5 -0 0 1
d 5 5 5 -0.25 0.433013 0.866025
d 5 5 5 -0.433013 0.75 0.5
d 5 5 5 -0.5 0.866025 4.64686e-14
d 5 5 5 -0.433013 0.75 -0.5
d 5 5 5 -0.25 0.433013 -0.866025
d 5 5 5 -0 0 1
d 5 5 5 -0.433013 0.25 0.866025
d 5 5 5 -0.75 0.433013 0.5
d 5 5 5 -0.866025 0.5 4.64686e-14
d 5 5 5 -0.75 0.433013 -0.5
d 5 5 5 -0.433013 0.25 -0.866025
d 5 5 5 -0 0 1
d 5 5 5 -0.5 4.64686e-14 0.866025
d 5 5 5 -0.866025 8.04859e-14 0.5
d 5 5 5 -1 9.29371e-14 4.64686e-14
d 5 5 5 -0.866025 8.04859e-14 -0.5
d 5 5 5 -0.5 4.64686e-14 -0.866025
d 5 5 5 -0 -0 1
d 5 5 5 -0.433013 -0.25 0.866025
d 5 5 5 -0.75 -0.433013 0.5
d 5 5 5 -0.866025 -0.5 4.64686e-14
d 5 5 5 -0.75 -0.433013 -0.5
d 5 5 5 -0.433013 -0.25 -0.866025
d 5 5 5 -0 -0 1
d 5 5 5 -0.25 -0.433013 0.866025
d 5 5 5 -0.433013 -0.75 0.5
d 5 5 5 -0.5 -0.866025 4.64686e-14
d 5 5 5 -0.433013 -0.75 -0.5
d 5 5 5 -0.25 -0.433013 -0.866025
d 5 5 5 -0 -0 1
d 5 5 5 -6.98139e-14 -0.5 0.866025
d 5 5 5 -1.20921e-13 -0.866025 0.5
d 5 5 5 -1.39628e-13 -1 4.64686e-14
d 5 5 5 -1.20921e-13 -0.866025 -0.5
d 5 5 5 -6.98139e-14 -0.5 -0.866025
d 5 5 5 0 -0 1
d 5 5 5 0.25 -0.433013 0.866025
d 5 5 5 0.433013 -0.75 0.5
d 5 5 5 0.5 -0.866025 4.64686e-14
d 5 5 5 0.433013 -0.75 -0.5
d 5 5 5 0.25 -0.433013 -0.866025
d 5 5 5 0 -0 1
d 5 5 5 0.433013 -0.25 0.866025
d 5 5 5 0.75 -0.433013 0.5
d 5 5 5 0.866025 -0.5 4.64686e-14
d 5 5 5 0.75 -0.433013 -0.5
d 5 5 5 0.433013 -0.25 -0.866025
