99
Liquid Crystals with Colloide in temperature=0.2, and potential=-3.31899e-22
Sp 0.333881 -0.0896001 0.741518 -0.42751 -0.0758621 0.900822
Sp 1.13387 0.113262 2.44918 0.708454 0.694925 -0.123177
Sp -0.406203 1.62918 1.68935 -0.0507784 0.0968459 0.994003
Sp -0.456367 0.26027 2.14498 -0.532304 0.683322 -0.499724
Sp 0.46848 1.8807 1.13501 0.59788 -0.39637 -0.696729
Sp 2.4928 0.962332 1.36462 0.812318 0.312887 -0.49218
Sp 0.26262 2.1706 -0.0858254 -0.900736 -0.415152 -0.127762
Sp 2.44634 0.40911 0.635786 -0.578157 0.467868 0.668456
Sp 0.433125 0.279983 0.766108 0.165396 0.782358 0.600467
Sp 1.75531 0.134292 2.48103 0.930479 0.335165 -0.147893
Sp 2.30363 0.478636 -0.00148217 -0.0870778 0.895982 0.435469
Sp 1.24687 2.37497 2.28412 0.485267 -0.861451 -0.149728
Sp 1.4385 0.492304 1.32021 -0.715003 0.493169 0.495535
Sp 1.58116 1.54834 1.44638 -0.94199 -0.159327 0.295416
Sp 1.38282 0.437856 -0.0489767 -0.647337 0.743541 0.167633
Sp 1.25106 0.289375 2.31876 -0.112085 0.986686 -0.117847
Sp 1.07094 2.45811 0.552285 0.0145728 -0.0615235 0.997999
Sp 2.37739 1.69975 0.401566 0.944947 -0.259849 0.198883
Sp 2.27496 0.901371 1.41295 -0.935509 -0.332167 0.120366
Sp 2.29392 2.15504 2.20241 0.0867571 0.996225 -0.0029294
Sp -0.0528673 1.36042 1.3346 -0.0458006 -0.359863 -0.93188
Sp 1.96114 0.487309 1.05983 0.264954 0.756931 0.597374
Sp 2.31363 0.768748 -0.0370038 -0.122488 0.370168 0.920854
Sp -0.164866 1.15536 -0.152432 0.761102 0.570154 -0.30927
Sp -0.473388 1.9435 1.46586 -0.133311 0.90851 -0.396028
Sp 1.43272 -0.486406 1.55042 0.977073 -0.158031 -0.142668
Sp 0.515169 0.134692 1.86044 -0.849991 0.498978 0.168928
d 5 5 5 0 0 1
d 5 5 5 0.5 0 0.866025
d 5 5 5 0.866025 0 0.5
d 5 5 5 1 0 4.64686e-14
d 5 5 5 0.866025 0 -0.5
d 5 5 5 0.5 0 -0.866025
d 5 5 5 0 0 1
d 5 5 5 0.433013 0.25 0.866025
d 5 5 5 0.75 0.433013 0.5
d 5 5 5 0.866025 0.5 4.64686e-14
d 5 5 5 0.75 0.433013 -0.5
d 5 5 5 0.433013 0.25 -0.866025
d 5 5 5 0 0 1
d 5 5 5 0.25 0.433013 0.866025
d 5 5 5 0.433013 0.75 0.5
d 5 5 5 0.5 0.866025 4.64686e-14
d 5 5 5 0.433013 0.75 -0.5
d 5 5 5 0.25 0.433013 -0.866025
d 5 5 5 0 0 1
d 5 5 5 2.32343e-14 0.5 0.866025
d 5 5 5 4.02429e-14 0.866025 0.5
d 5 5 5 4.64686e-14 1 4.64686e-14
d 5 5 5 4.02429e-14 0.866025 -0.5
d 5 5 5 2.32343e-14 0.5 -0.866025
d 5 5 5 -0 0 1
d 5 5 5 -0.25 0.433013 0.866025
d 5 5 5 -0.433013 0.75 0.5
d 5 5 5 -0.5 0.866025 4.64686e-14
d 5 5 5 -0.433013 0.75 -0.5
d 5 5 5 -0.25 0.433013 -0.866025
d 5 5 5 -0 0 1
d 5 5 5 -0.433013 0.25 0.866025
d 5 5 5 -0.75 0.433013 0.5
d 5 5 5 -0.866025 0.5 4.64686e-14
d 5 5 5 -0.75 0.433013 -0.5
d 5 5 5 -0.433013 0.25 -0.866025
d 5 5 5 -0 0 1
d 5 5 5 -0.5 4.64686e-14 0.866025
d 5 5 5 -0.866025 8.04859e-14 0.5
d 5 5 5 -1 9.29371e-14 4.64686e-14
d 5 5 5 -0.866025 8.04859e-14 -0.5
d 5 5 5 -0.5 4.64686e-14 -0.866025
d 5 5 5 -0 -0 1
d 5 5 5 -0.433013 -0.25 0.866025
d 5 5 5 -0.75 -0.433013 0.5
d 5 5 5 -0.866025 -0.5 4.64686e-14
d 5 5 5 -0.75 -0.433013 -0.5
d 5 5 5 -0.433013 -0.25 -0.866025
d 5 5 5 -0 -0 1
d 5 5 5 -0.25 -0.433013 0.866025
d 5 5 5 -0.433013 -0.75 0.5
d 5 5 5 -0.5 -0.866025 4.64686e-14
d 5 5 5 -0.433013 -0.75 -0.5
d 5 5 5 -0.25 -0.433013 -0.866025
d 5 5 5 -0 -0 1
d 5 5 5 -6.98139e-14 -0.5 0.866025
d 5 5 5 -1.20921e-13 -0.866025 0.5
d 5 5 5 -1.39628e-13 -1 4.64686e-14
d 5 5 5 -1.20921e-13 -0.866025 -0.5
d 5 5 5 -6.98139e-14 -0.5 -0.866025
d 5 5 5 0 -0 1
d 5 5 5 0.25 -0.433013 0.866025
d 5 5 5 0.433013 -0.75 0.5
d 5 5 5 0.5 -0.866025 4.64686e-14
d 5 5 5 0.433013 -0.75 -0.5
d 5 5 5 0.25 -0.433013 -0.866025
d 5 5 5 0 -0 1
d 5 5 5 0.433013 -0.25 0.866025
d 5 5 5 0.75 -0.433013 0.5
d 5 5 5 0.866025 -0.5 4.64686e-14
d 5 5 5 0.75 -0.433013 -0.5
d 5 5 5 0.433013 -0.25 -0.866025
