99
Liquid Crystals with Colloide in temperature=0.4, and potential=-2.73599e-22
Sp 0.293107 0.567959 0.661208 -0.377784 -0.48483 0.788809
Sp 1.13387 0.113262 2.44918 0.708454 0.694925 -0.123177
Sp 0.378171 1.13806 0.538473 0.144783 0.0251312 0.989144
Sp -0.047863 1.96239 2.25969 -0.588393 0.556054 -0.587025
Sp 0.25338 -0.16752 0.345372 0.495593 -0.177147 -0.850298
Sp 2.4928 0.962332 1.36462 0.812318 0.312887 -0.49218
Sp 0.977406 1.81491 -0.107168 -0.851561 -0.520295 -0.064319
Sp 1.49263 1.8113 -0.201249 -0.291893 0.324518 0.899715
Sp -0.0700905 2.39621 1.37392 0.128581 0.97781 0.165392
Sp 0.110837 -0.098299 -0.0833579 0.890821 0.441758 0.106243
Sp 2.22318 0.0578057 1.14151 -0.0955977 0.731123 0.675515
Sp 1.48067 2.38343 2.2675 0.528161 -0.835667 -0.150688
Sp 0.147924 -0.09113 0.963673 -0.542524 0.551554 0.633605
Sp 1.78135 1.70472 1.03191 -0.968022 -0.131875 0.213405
Sp 2.05583 2.06624 0.446897 0.200734 0.947152 0.250217
Sp 2.14134 0.280788 0.108768 0.106983 0.99134 0.0761575
Sp 1.18478 -0.103446 1.61018 0.0195417 0.0825678 0.996394
Sp 0.571749 2.16428 0.48131 0.982551 -0.0380044 0.182068
Sp 2.27496 0.901371 1.41295 -0.935509 -0.332167 0.120366
Sp 2.49474 1.42281 2.33787 0.154577 0.987324 0.0360086
Sp 0.189312 0.806487 1.99851 0.016847 0.299121 -0.954066
Sp 0.689938 0.18792 2.14636 0.539388 0.497651 0.679268
Sp 2.31363 0.768748 -0.0370038 -0.122488 0.370168 0.920854
Sp 0.224831 0.946858 1.78302 0.334018 0.942558 0.00398083
Sp 0.110545 1.54135 2.27877 0.0089984 0.962432 -0.271374
Sp 2.42926 0.125134 1.49169 0.840146 -0.0120009 0.542227
Sp 0.274085 0.74818 1.5869 -0.81088 0.576565 0.100233
d 5 5 5 0 0 1
d 5 5 5 0.5 0 0.866025
d 5 5 5 0.866025 0 0.5
d 5 5 5 1 0 4.64686e-14
d 5 5 5 0.866025 0 -0.5
d 5 5 5 0.5 0 -0.866025
d 5 5 5 0 0 1
d 5 5 5 0.433013 0.25 0.866025
d 5 5 5 0.75 0.433013 0.5
d 5 5 5 0.866025 0.5 4.64686e-14
d 5 5 5 0.75 0.433013 -0.5
d 5 5 5 0.433013 0.25 -0.866025
d 5 5 5 0 0 1
d 5 5 5 0.25 0.433013 0.866025
d 5 5 5 0.433013 0.75 0.5
d 5 5 5 0.5 0.866025 4.64686e-14
d 5 5 5 0.433013 0.75 -0.5
d 5 5 5 0.25 0.433013 -0.866025
d 5 5 5 0 0 1
d 5 5 5 2.32343e-14 0.5 0.866025
d 5 5 5 4.02429e-14 0.866025 0.5
d 5 5 5 4.64686e-14 1 4.64686e-14
d 5 5 5 4.02429e-14 0.866025 -0.5
d 5 5 5 2.32343e-14 0.5 -0.866025
d 5 5 5 -0 0 1
d 5 5 5 -0.25 0.433013 0.866025
d 5 5 5 -0.433013 0.75 0.5
d 5 5 5 -0.5 0.866025 4.64686e-14
d 5 5 5 -0.433013 0.75 -0.5
d 5 5 5 -0.25 0.433013 -0.866025
d 5 5 5 -0 0 1
d 5 5 5 -0.433013 0.25 0.866025
d 5 5 5 -0.75 0.433013 0.5
d 5 5 5 -0.866025 0.5 4.64686e-14
d 5 5 5 -0.75 0.433013 -0.5
d 5 5 5 -0.433013 0.25 -0.866025
d 5 5 5 -0 0 1
d 5 5 5 -0.5 4.64686e-14 0.866025
d 5 5 5 -0.866025 8.04859e-14 0.5
d 5 5 5 -1 9.29371e-14 4.64686e-14
d 5 5 5 -0.866025 8.04859e-14 -0.5
d 5 5 5 -0.5 4.64686e-14 -0.866025
d 5 5 5 -0 -0 1
d 5 5 5 -0.433013 -0.25 0.866025
d 5 5 5 -0.75 -0.433013 0.5
d 5 5 5 -0.866025 -0.5 4.64686e-14
d 5 5 5 -0.75 -0.433013 -0.5
d 5 5 5 -0.433013 -0.25 -0.866025
d 5 5 5 -0 -0 1
d 5 5 5 -0.25 -0.433013 0.866025
d 5 5 5 -0.433013 -0.75 0.5
d 5 5 5 -0.5 -0.866025 4.64686e-14
d 5 5 5 -0.433013 -0.75 -0.5
d 5 5 5 -0.25 -0.433013 -0.866025
d 5 5 5 -0 -0 1
d 5 5 5 -6.98139e-14 -0.5 0.866025
d 5 5 5 -1.20921e-13 -0.866025 0.5
d 5 5 5 -1.39628e-13 -1 4.64686e-14
d 5 5 5 -1.20921e-13 -0.866025 -0.5
d 5 5 5 -6.98139e-14 -0.5 -0.866025
d 5 5 5 0 -0 1
d 5 5 5 0.25 -0.433013 0.866025
d 5 5 5 0.433013 -0.75 0.5
d 5 5 5 0.5 -0.866025 4.64686e-14
d 5 5 5 0.433013 -0.75 -0.5
d 5 5 5 0.25 -0.433013 -0.866025
d 5 5 5 0 -0 1
d 5 5 5 0.433013 -0.25 0.866025
d 5 5 5 0.75 -0.433013 0.5
d 5 5 5 0.866025 -0.5 4.64686e-14
d 5 5 5 0.75 -0.433013 -0.5
d 5 5 5 0.433013 -0.25 -0.866025
