99
Liquid Crystals with Colloide in temperature=1, and potential=-2.49097e-23
Sp 0.373222 1.67232 2.34611 0.349888 0.194042 0.916475
Sp 0.000282527 0.119615 0.300164 0.580548 0.808238 0.0985691
Sp 1.82142 2.00228 -0.119622 0.483247 0.221048 0.847118
Sp 2.05026 1.45157 2.42341 -0.333539 0.62998 -0.70134
Sp 0.119947 -0.104658 1.40973 0.300423 -0.0669616 -0.951453
Sp 0.828718 -0.418813 2.23006 0.976727 -0.0476514 -0.209127
Sp -0.329565 2.47951 1.44009 -0.908683 -0.342597 0.238584
Sp 2.03779 2.02508 0.410339 -0.124885 -0.369912 0.920635
Sp -0.239219 0.448042 0.312301 0.141975 0.984862 -0.0994447
Sp -0.054841 2.16696 0.858412 0.910381 0.289719 0.295415
Sp 1.87236 -0.199998 0.154727 -0.264518 0.829903 0.491213
Sp 1.16133 -0.306817 0.0197034 0.550594 -0.832663 0.0593185
Sp 0.850579 1.4247 -0.0295164 -0.633447 0.442099 0.635053
Sp 2.40759 -0.0422484 0.496015 -0.805859 -0.583454 0.100863
Sp 1.9428 -0.0759156 0.192654 0.166118 0.97513 0.14672
Sp 0.861313 0.16024 -0.286336 -0.187066 0.981536 -0.039921
Sp 0.378193 0.148349 -0.0739392 -0.288594 0.121209 0.949748
Sp 1.14815 -0.185142 1.32646 0.831089 0.225642 0.508308
Sp -0.386998 1.34838 1.9816 -0.916345 -0.26119 0.303467
Sp -0.219581 1.6325 -0.168147 0.217298 0.965359 0.144445
Sp 2.08797 0.410293 -0.380532 -0.312262 0.227045 -0.922466
Sp -0.298485 1.33779 1.11076 0.330259 0.803096 0.495949
Sp -0.162475 1.09189 1.8966 0.0250612 0.571912 0.819932
Sp 0.0521596 -0.479245 1.99056 0.367028 0.927295 0.07358
Sp 0.2555 1.83574 -0.365261 0.12504 0.971864 -0.199612
Sp 0.552451 0.288805 2.21077 0.832433 -0.00381966 0.554112
Sp 0.597709 0.0680739 -0.396878 -0.791576 0.476037 0.38314
d 5 5 5 0 0 1
d 5 5 5 0.5 0 0.866025
d 5 5 5 0.866025 0 0.5
d 5 5 5 1 0 4.64686e-14
d 5 5 5 0.866025 0 -0.5
d 5 5 5 0.5 0 -0.866025
d 5 5 5 0 0 1
d 5 5 5 0.433013 0.25 0.866025
d 5 5 5 0.75 0.433013 0.5
d 5 5 5 0.866025 0.5 4.64686e-14
d 5 5 5 0.75 0.433013 -0.5
d 5 5 5 0.433013 0.25 -0.866025
d 5 5 5 0 0 1
d 5 5 5 0.25 0.433013 0.866025
d 5 5 5 0.433013 0.75 0.5
d 5 5 5 0.5 0.866025 4.64686e-14
d 5 5 5 0.433013 0.75 -0.5
d 5 5 5 0.25 0.433013 -0.866025
d 5 5 5 0 0 1
d 5 5 5 2.32343e-14 0.5 0.866025
d 5 5 5 4.02429e-14 0.866025 0.5
d 5 5 5 4.64686e-14 1 4.64686e-14
d 5 5 5 4.02429e-14 0.866025 -0.5
d 5 5 5 2.32343e-14 0.5 -0.866025
d 5 5 5 -0 0 1
d 5 5 5 -0.25 0.433013 0.866025
d 5 5 5 -0.433013 0.75 0.5
d 5 5 5 -0.5 0.866025 4.64686e-14
d 5 5 5 -0.433013 0.75 -0.5
d 5 5 5 -0.25 0.433013 -0.866025
d 5 5 5 -0 0 1
d 5 5 5 -0.433013 0.25 0.866025
d 5 5 5 -0.75 0.433013 0.5
d 5 5 5 -0.866025 0.5 4.64686e-14
d 5 5 5 -0.75 0.433013 -0.5
d 5 5 5 -0.433013 0.25 -0.866025
d 5 5 5 -0 0 1
d 5 5 5 -0.5 4.64686e-14 0.866025
d 5 5 5 -0.866025 8.04859e-14 0.5
d 5 5 5 -1 9.29371e-14 4.64686e-14
d 5 5 5 -0.866025 8.04859e-14 -0.5
d 5 5 5 -0.5 4.64686e-14 -0.866025
d 5 5 5 -0 -0 1
d 5 5 5 -0.433013 -0.25 0.866025
d 5 5 5 -0.75 -0.433013 0.5
d 5 5 5 -0.866025 -0.5 4.64686e-14
d 5 5 5 -0.75 -0.433013 -0.5
d 5 5 5 -0.433013 -0.25 -0.866025
d 5 5 5 -0 -0 1
d 5 5 5 -0.25 -0.433013 0.866025
d 5 5 5 -0.433013 -0.75 0.5
d 5 5 5 -0.5 -0.866025 4.64686e-14
d 5 5 5 -0.433013 -0.75 -0.5
d 5 5 5 -0.25 -0.433013 -0.866025
d 5 5 5 -0 -0 1
d 5 5 5 -6.98139e-14 -0.5 0.866025
d 5 5 5 -1.20921e-13 -0.866025 0.5
d 5 5 5 -1.39628e-13 -1 4.64686e-14
d 5 5 5 -1.20921e-13 -0.866025 -0.5
d 5 5 5 -6.98139e-14 -0.5 -0.866025
d 5 5 5 0 -0 1
d 5 5 5 0.25 -0.433013 0.866025
d 5 5 5 0.433013 -0.75 0.5
d 5 5 5 0.5 -0.866025 4.64686e-14
d 5 5 5 0.433013 -0.75 -0.5
d 5 5 5 0.25 -0.433013 -0.866025
d 5 5 5 0 -0 1
d 5 5 5 0.433013 -0.25 0.866025
d 5 5 5 0.75 -0.433013 0.5
d 5 5 5 0.866025 -0.5 4.64686e-14
d 5 5 5 0.75 -0.433013 -0.5
d 5 5 5 0.433013 -0.25 -0.866025
