99
Liquid Crystals with Colloide in temperature=0.8, and potential=-3.35861e-23
Sp 0.0740649 -0.185127 1.91933 0.311231 -0.236255 0.920499
Sp 0.640869 -0.131004 0.394114 0.703307 0.701653 0.114206
Sp 1.89236 1.43425 -0.131536 0.511801 0.0773655 0.855613
Sp 1.18592 1.18621 0.0387555 -0.567285 0.591765 -0.572715
Sp -0.258011 1.53918 -0.424357 0.263852 -0.456564 -0.849666
Sp 0.473307 0.0128737 1.97977 0.958034 0.0536844 -0.281582
Sp 0.167421 1.24783 1.57985 -0.743255 -0.616946 0.258747
Sp 1.32717 0.344636 -0.076938 -0.338735 -0.066492 0.93853
Sp 2.13937 1.07943 0.464551 -0.0160055 0.998572 -0.0509707
Sp -0.234991 2.39177 0.0246343 0.922256 0.372841 0.102148
Sp 1.68958 -0.00635033 0.0207641 -0.296549 0.845534 0.443994
Sp 0.542876 1.51105 -0.0901843 0.291591 -0.95623 0.0244814
Sp 1.47749 2.05221 -0.00441366 -0.477872 0.595924 0.645379
Sp 1.78386 1.32807 1.35798 -0.935191 -0.209932 0.285212
Sp 1.37656 2.01552 0.127615 0.0587798 0.984703 0.164026
Sp 0.551698 -0.172906 -0.0644402 -0.278843 0.960167 0.0180617
Sp 2.39227 -0.412558 -0.0767383 -0.48831 -0.0128187 0.872576
Sp 1.42173 0.00135635 1.17181 0.855071 0.254795 0.451589
Sp -0.479173 1.36071 2.27819 -0.899085 -0.247036 0.361413
Sp 2.32856 1.65813 2.47388 0.107192 0.992566 0.0576339
Sp 2.04604 0.316719 2.20465 -0.288438 0.185517 -0.939354
Sp 0.0764637 1.45401 0.383368 0.42998 0.843529 0.321834
Sp 0.00564232 1.27812 0.400469 0.0612104 0.438504 0.896643
Sp 0.135624 0.0921812 1.75068 0.349455 0.936844 0.0143158
Sp 2.39865 2.47362 -0.162926 -0.0933535 0.989434 -0.110928
Sp -0.344438 0.707354 1.67411 0.824763 0.109715 0.554733
Sp 0.590296 -0.305256 2.20011 -0.860125 0.413527 0.298631
d 5 5 5 0 0 1
d 5 5 5 0.5 0 0.866025
d 5 5 5 0.866025 0 0.5
d 5 5 5 1 0 4.64686e-14
d 5 5 5 0.866025 0 -0.5
d 5 5 5 0.5 0 -0.866025
d 5 5 5 0 0 1
d 5 5 5 0.433013 0.25 0.866025
d 5 5 5 0.75 0.433013 0.5
d 5 5 5 0.866025 0.5 4.64686e-14
d 5 5 5 0.75 0.433013 -0.5
d 5 5 5 0.433013 0.25 -0.866025
d 5 5 5 0 0 1
d 5 5 5 0.25 0.433013 0.866025
d 5 5 5 0.433013 0.75 0.5
d 5 5 5 0.5 0.866025 4.64686e-14
d 5 5 5 0.433013 0.75 -0.5
d 5 5 5 0.25 0.433013 -0.866025
d 5 5 5 0 0 1
d 5 5 5 2.32343e-14 0.5 0.866025
d 5 5 5 4.02429e-14 0.866025 0.5
d 5 5 5 4.64686e-14 1 4.64686e-14
d 5 5 5 4.02429e-14 0.866025 -0.5
d 5 5 5 2.32343e-14 0.5 -0.866025
d 5 5 5 -0 0 1
d 5 5 5 -0.25 0.433013 0.866025
d 5 5 5 -0.433013 0.75 0.5
d 5 5 5 -0.5 0.866025 4.64686e-14
d 5 5 5 -0.433013 0.75 -0.5
d 5 5 5 -0.25 0.433013 -0.866025
d 5 5 5 -0 0 1
d 5 5 5 -0.433013 0.25 0.866025
d 5 5 5 -0.75 0.433013 0.5
d 5 5 5 -0.866025 0.5 4.64686e-14
d 5 5 5 -0.75 0.433013 -0.5
d 5 5 5 -0.433013 0.25 -0.866025
d 5 5 5 -0 0 1
d 5 5 5 -0.5 4.64686e-14 0.866025
d 5 5 5 -0.866025 8.04859e-14 0.5
d 5 5 5 -1 9.29371e-14 4.64686e-14
d 5 5 5 -0.866025 8.04859e-14 -0.5
d 5 5 5 -0.5 4.64686e-14 -0.866025
d 5 5 5 -0 -0 1
d 5 5 5 -0.433013 -0.25 0.866025
d 5 5 5 -0.75 -0.433013 0.5
d 5 5 5 -0.866025 -0.5 4.64686e-14
d 5 5 5 -0.75 -0.433013 -0.5
d 5 5 5 -0.433013 -0.25 -0.866025
d 5 5 5 -0 -0 1
d 5 5 5 -0.25 -0.433013 0.866025
d 5 5 5 -0.433013 -0.75 0.5
d 5 5 5 -0.5 -0.866025 4.64686e-14
d 5 5 5 -0.433013 -0.75 -0.5
d 5 5 5 -0.25 -0.433013 -0.866025
d 5 5 5 -0 -0 1
d 5 5 5 -6.98139e-14 -0.5 0.866025
d 5 5 5 -1.20921e-13 -0.866025 0.5
d 5 5 5 -1.39628e-13 -1 4.64686e-14
d 5 5 5 -1.20921e-13 -0.866025 -0.5
d 5 5 5 -6.98139e-14 -0.5 -0.866025
d 5 5 5 0 -0 1
d 5 5 5 0.25 -0.433013 0.866025
d 5 5 5 0.433013 -0.75 0.5
d 5 5 5 0.5 -0.866025 4.64686e-14
d 5 5 5 0.433013 -0.75 -0.5
d 5 5 5 0.25 -0.433013 -0.866025
d 5 5 5 0 -0 1
d 5 5 5 0.433013 -0.25 0.866025
d 5 5 5 0.75 -0.433013 0.5
d 5 5 5 0.866025 -0.5 4.64686e-14
d 5 5 5 0.75 -0.433013 -0.5
d 5 5 5 0.433013 -0.25 -0.866025
