99
Liquid Crystals with Colloide in temperature=0.3, and potential=-2.84303e-22
Sp 1.88377 1.83424 -0.112694 -0.10908 -0.393079 0.913012
Sp 1.13387 0.113262 2.44918 0.708454 0.694925 -0.123177
Sp -0.466194 1.6822 1.82069 -0.0638774 0.124075 0.990215
Sp 0.318898 2.37974 2.04094 -0.456695 0.626975 -0.631136
Sp 0.46848 1.8807 1.13501 0.59788 -0.39637 -0.696729
Sp 2.4928 0.962332 1.36462 0.812318 0.312887 -0.49218
Sp -0.163851 0.0283376 0.161693 -0.986174 -0.165634 0.0051295
Sp 0.576028 0.204096 0.875114 -0.327707 0.475025 0.816676
Sp 1.10746 -0.472406 0.0810259 0.386163 0.761098 0.521161
Sp 1.99066 0.452316 1.11297 0.891713 0.382815 0.241456
Sp 0.913223 0.451195 2.31949 0.289369 0.911229 0.293132
Sp 1.24687 2.37497 2.28412 0.485267 -0.861451 -0.149728
Sp 1.4385 0.492304 1.32021 -0.715003 0.493169 0.495535
Sp 1.65237 1.71388 1.43083 -0.946596 -0.121733 0.298558
Sp 0.835812 0.756457 -0.226323 -0.100488 0.984782 0.141796
Sp 1.25106 0.289375 2.31876 -0.112085 0.986686 -0.117847
Sp 1.23407 2.3497 0.0968908 0.0629642 -0.0952165 0.993463
Sp 2.14232 2.06656 0.486816 0.953913 -0.186919 0.234756
Sp 2.27496 0.901371 1.41295 -0.935509 -0.332167 0.120366
Sp 2.38824 2.07126 2.19857 0.111941 0.993707 -0.00394312
Sp 0.259625 1.74854 1.51974 0.0319818 -0.285815 -0.957751
Sp 1.96114 0.487309 1.05983 0.264954 0.756931 0.597374
Sp 2.31363 0.768748 -0.0370038 -0.122488 0.370168 0.920854
Sp 1.20918 1.7649 -0.455384 0.452233 0.788258 -0.417294
Sp -0.191726 1.43258 1.48576 -0.0730227 0.886959 -0.456039
Sp -0.412252 0.506648 0.435428 0.946916 0.0748683 0.312641
Sp -0.116031 0.743414 1.65859 -0.839108 0.532838 0.109462
d 5 5 5 0 0 1
d 5 5 5 0.5 0 0.866025
d 5 5 5 0.866025 0 0.5
d 5 5 5 1 0 4.64686e-14
d 5 5 5 0.866025 0 -0.5
d 5 5 5 0.5 0 -0.866025
d 5 5 5 0 0 1
d 5 5 5 0.433013 0.25 0.866025
d 5 5 5 0.75 0.433013 0.5
d 5 5 5 0.866025 0.5 4.64686e-14
d 5 5 5 0.75 0.433013 -0.5
d 5 5 5 0.433013 0.25 -0.866025
d 5 5 5 0 0 1
d 5 5 5 0.25 0.433013 0.866025
d 5 5 5 0.433013 0.75 0.5
d 5 5 5 0.5 0.866025 4.64686e-14
d 5 5 5 0.433013 0.75 -0.5
d 5 5 5 0.25 0.433013 -0.866025
d 5 5 5 0 0 1
d 5 5 5 2.32343e-14 0.5 0.866025
d 5 5 5 4.02429e-14 0.866025 0.5
d 5 5 5 4.64686e-14 1 4.64686e-14
d 5 5 5 4.02429e-14 0.866025 -0.5
d 5 5 5 2.32343e-14 0.5 -0.866025
d 5 5 5 -0 0 1
d 5 5 5 -0.25 0.433013 0.866025
d 5 5 5 -0.433013 0.75 0.5
d 5 5 5 -0.5 0.866025 4.64686e-14
d 5 5 5 -0.433013 0.75 -0.5
d 5 5 5 -0.25 0.433013 -0.866025
d 5 5 5 -0 0 1
d 5 5 5 -0.433013 0.25 0.866025
d 5 5 5 -0.75 0.433013 0.5
d 5 5 5 -0.866025 0.5 4.64686e-14
d 5 5 5 -0.75 0.433013 -0.5
d 5 5 5 -0.433013 0.25 -0.866025
d 5 5 5 -0 0 1
d 5 5 5 -0.5 4.64686e-14 0.866025
d 5 5 5 -0.866025 8.04859e-14 0.5
d 5 5 5 -1 9.29371e-14 4.64686e-14
d 5 5 5 -0.866025 8.04859e-14 -0.5
d 5 5 5 -0.5 4.64686e-14 -0.866025
d 5 5 5 -0 -0 1
d 5 5 5 -0.433013 -0.25 0.866025
d 5 5 5 -0.75 -0.433013 0.5
d 5 5 5 -0.866025 -0.5 4.64686e-14
d 5 5 5 -0.75 -0.433013 -0.5
d 5 5 5 -0.433013 -0.25 -0.866025
d 5 5 5 -0 -0 1
d 5 5 5 -0.25 -0.433013 0.866025
d 5 5 5 -0.433013 -0.75 0.5
d 5 5 5 -0.5 -0.866025 4.64686e-14
d 5 5 5 -0.433013 -0.75 -0.5
d 5 5 5 -0.25 -0.433013 -0.866025
d 5 5 5 -0 -0 1
d 5 5 5 -6.98139e-14 -0.5 0.866025
d 5 5 5 -1.20921e-13 -0.866025 0.5
d 5 5 5 -1.39628e-13 -1 4.64686e-14
d 5 5 5 -1.20921e-13 -0.866025 -0.5
d 5 5 5 -6.98139e-14 -0.5 -0.866025
d 5 5 5 0 -0 1
d 5 5 5 0.25 -0.433013 0.866025
d 5 5 5 0.433013 -0.75 0.5
d 5 5 5 0.5 -0.866025 4.64686e-14
d 5 5 5 0.433013 -0.75 -0.5
d 5 5 5 0.25 -0.433013 -0.866025
d 5 5 5 0 -0 1
d 5 5 5 0.433013 -0.25 0.866025
d 5 5 5 0.75 -0.433013 0.5
d 5 5 5 0.866025 -0.5 4.64686e-14
d 5 5 5 0.75 -0.433013 -0.5
d 5 5 5 0.433013 -0.25 -0.866025
