99
Liquid Crystals with Colloide in temperature=0.5, and potential=-4.01834e-23
Sp 0.315846 1.5517 2.39922 0.307265 -0.477208 0.823323
Sp 0.508735 0.0502098 2.4249 0.657823 0.742467 -0.126536
Sp 1.78005 1.73908 -0.439739 0.518982 0.167583 0.838196
Sp 0.332753 1.72578 -0.284265 -0.587919 0.581774 -0.56204
Sp 0.553535 2.49786 0.413675 0.544453 -0.293765 -0.785667
Sp 0.566213 -0.0076561 1.816 0.943879 0.0522232 -0.326138
Sp 0.38102 -0.242134 1.07483 -0.920266 -0.341129 0.191679
Sp 1.36606 1.45431 0.245097 -0.302776 0.209197 0.929819
Sp 2.3015 1.48359 -0.221301 0.0345454 0.97977 -0.197124
Sp 0.859408 0.0545201 -0.138919 0.909027 0.411402 0.0664725
Sp 1.56367 0.0642682 1.16118 -0.259874 0.722467 0.640708
Sp 0.581844 2.45814 1.80334 0.350376 -0.893534 -0.280773
Sp 0.307216 -0.368024 0.686337 -0.57771 0.546225 0.606538
Sp 1.99326 1.12163 1.05428 -0.934863 -0.27766 0.221215
Sp 1.53399 1.53868 -0.474188 0.121807 0.991827 0.0379853
Sp 0.97346 -0.454595 0.661272 -0.165645 0.961601 0.218827
Sp 0.735561 2.4948 0.488854 -0.14559 -0.0262279 0.988997
Sp 2.26552 0.361433 1.02596 0.894769 0.281426 0.34668
Sp -0.174299 0.782052 2.32319 -0.826507 -0.421122 0.373553
Sp 2.17468 1.49861 2.42246 0.0735105 0.995731 0.0558125
Sp 2.2877 0.306036 2.21095 -0.205369 0.201565 -0.957703
Sp 0.111387 0.831763 0.603535 0.505532 0.766273 0.396563
Sp 2.13435 1.28335 0.356374 -0.142369 0.453635 0.879742
Sp -0.375384 1.68879 0.805268 0.148804 0.967058 -0.206536
Sp 2.42359 1.26202 0.0789789 -0.146489 0.987067 -0.0651055
Sp 0.761868 0.207241 1.87666 0.883745 -0.0198364 0.467549
Sp 0.933984 -0.446941 1.05048 -0.898241 0.439343 -0.0118436
d 5 5 5 0 0 1
d 5 5 5 0.5 0 0.866025
d 5 5 5 0.866025 0 0.5
d 5 5 5 1 0 4.64686e-14
d 5 5 5 0.866025 0 -0.5
d 5 5 5 0.5 0 -0.866025
d 5 5 5 0 0 1
d 5 5 5 0.433013 0.25 0.866025
d 5 5 5 0.75 0.433013 0.5
d 5 5 5 0.866025 0.5 4.64686e-14
d 5 5 5 0.75 0.433013 -0.5
d 5 5 5 0.433013 0.25 -0.866025
d 5 5 5 0 0 1
d 5 5 5 0.25 0.433013 0.866025
d 5 5 5 0.433013 0.75 0.5
d 5 5 5 0.5 0.866025 4.64686e-14
d 5 5 5 0.433013 0.75 -0.5
d 5 5 5 0.25 0.433013 -0.866025
d 5 5 5 0 0 1
d 5 5 5 2.32343e-14 0.5 0.866025
d 5 5 5 4.02429e-14 0.866025 0.5
d 5 5 5 4.64686e-14 1 4.64686e-14
d 5 5 5 4.02429e-14 0.866025 -0.5
d 5 5 5 2.32343e-14 0.5 -0.866025
d 5 5 5 -0 0 1
d 5 5 5 -0.25 0.433013 0.866025
d 5 5 5 -0.433013 0.75 0.5
d 5 5 5 -0.5 0.866025 4.64686e-14
d 5 5 5 -0.433013 0.75 -0.5
d 5 5 5 -0.25 0.433013 -0.866025
d 5 5 5 -0 0 1
d 5 5 5 -0.433013 0.25 0.866025
d 5 5 5 -0.75 0.433013 0.5
d 5 5 5 -0.866025 0.5 4.64686e-14
d 5 5 5 -0.75 0.433013 -0.5
d 5 5 5 -0.433013 0.25 -0.866025
d 5 5 5 -0 0 1
d 5 5 5 -0.5 4.64686e-14 0.866025
d 5 5 5 -0.866025 8.04859e-14 0.5
d 5 5 5 -1 9.29371e-14 4.64686e-14
d 5 5 5 -0.866025 8.04859e-14 -0.5
d 5 5 5 -0.5 4.64686e-14 -0.866025
d 5 5 5 -0 -0 1
d 5 5 5 -0.433013 -0.25 0.866025
d 5 5 5 -0.75 -0.433013 0.5
d 5 5 5 -0.866025 -0.5 4.64686e-14
d 5 5 5 -0.75 -0.433013 -0.5
d 5 5 5 -0.433013 -0.25 -0.866025
d 5 5 5 -0 -0 1
d 5 5 5 -0.25 -0.433013 0.866025
d 5 5 5 -0.433013 -0.75 0.5
d 5 5 5 -0.5 -0.866025 4.64686e-14
d 5 5 5 -0.433013 -0.75 -0.5
d 5 5 5 -0.25 -0.433013 -0.866025
d 5 5 5 -0 -0 1
d 5 5 5 -6.98139e-14 -0.5 0.866025
d 5 5 5 -1.20921e-13 -0.866025 0.5
d 5 5 5 -1.39628e-13 -1 4.64686e-14
d 5 5 5 -1.20921e-13 -0.866025 -0.5
d 5 5 5 -6.98139e-14 -0.5 -0.866025
d 5 5 5 0 -0 1
d 5 5 5 0.25 -0.433013 0.866025
d 5 5 5 0.433013 -0.75 0.5
d 5 5 5 0.5 -0.866025 4.64686e-14
d 5 5 5 0.433013 -0.75 -0.5
d 5 5 5 0.25 -0.433013 -0.866025
d 5 5 5 0 -0 1
d 5 5 5 0.433013 -0.25 0.866025
d 5 5 5 0.75 -0.433013 0.5
d 5 5 5 0.866025 -0.5 4.64686e-14
d 5 5 5 0.75 -0.433013 -0.5
d 5 5 5 0.433013 -0.25 -0.866025
