99
Liquid Crystals with Colloide in temperature=0.3, and potential=-3.54975e-22
Sp 1.97631 2.09906 0.0415877 -0.0851949 -0.322131 0.942854
Sp 1.13387 0.113262 2.44918 0.708454 0.694925 -0.123177
Sp -0.278002 0.964996 1.62457 -0.0170734 -0.0682403 0.997523
Sp 0.318898 2.37974 2.04094 -0.456695 0.626975 -0.631136
Sp 0.46848 1.8807 1.13501 0.59788 -0.39637 -0.696729
Sp 2.4928 0.962332 1.36462 0.812318 0.312887 -0.49218
Sp 2.09289 2.35151 -0.474117 -0.949849 -0.279607 -0.140025
Sp 0.776337 0.781149 0.309533 -0.308419 0.624597 0.717465
Sp 1.17718 0.092739 -0.200581 0.365426 0.83639 0.408553
Sp 0.120912 0.110792 0.39517 0.969515 0.241457 0.0416952
Sp 1.15959 0.356186 2.39487 0.358502 0.882983 0.303015
Sp 1.24687 2.37497 2.28412 0.485267 -0.861451 -0.149728
Sp 1.4385 0.492304 1.32021 -0.715003 0.493169 0.495535
Sp 1.58116 1.54834 1.44638 -0.94199 -0.159327 0.295416
Sp -0.441171 0.812274 0.361011 -0.391753 0.878473 0.273523
Sp 1.25106 0.289375 2.31876 -0.112085 0.986686 -0.117847
Sp 1.07094 2.45811 0.552285 0.0145728 -0.0615235 0.997999
Sp 2.37739 1.69975 0.401566 0.944947 -0.259849 0.198883
Sp 2.27496 0.901371 1.41295 -0.935509 -0.332167 0.120366
Sp 2.29392 2.15504 2.20241 0.0867571 0.996225 -0.0029294
Sp -0.0528673 1.36042 1.3346 -0.0458006 -0.359863 -0.93188
Sp 1.96114 0.487309 1.05983 0.264954 0.756931 0.597374
Sp 2.31363 0.768748 -0.0370038 -0.122488 0.370168 0.920854
Sp 2.0451 1.10327 0.118326 0.682985 0.670097 -0.290692
Sp 0.0862902 0.854974 0.939459 0.00285292 0.781607 -0.623765
Sp 2.44042 0.514372 -0.396649 0.98694 0.0918483 0.13234
Sp 0.18144 0.938684 2.13233 -0.760671 0.606557 0.231232
d 5 5 5 0 0 1
d 5 5 5 0.5 0 0.866025
d 5 5 5 0.866025 0 0.5
d 5 5 5 1 0 4.64686e-14
d 5 5 5 0.866025 0 -0.5
d 5 5 5 0.5 0 -0.866025
d 5 5 5 0 0 1
d 5 5 5 0.433013 0.25 0.866025
d 5 5 5 0.75 0.433013 0.5
d 5 5 5 0.866025 0.5 4.64686e-14
d 5 5 5 0.75 0.433013 -0.5
d 5 5 5 0.433013 0.25 -0.866025
d 5 5 5 0 0 1
d 5 5 5 0.25 0.433013 0.866025
d 5 5 5 0.433013 0.75 0.5
d 5 5 5 0.5 0.866025 4.64686e-14
d 5 5 5 0.433013 0.75 -0.5
d 5 5 5 0.25 0.433013 -0.866025
d 5 5 5 0 0 1
d 5 5 5 2.32343e-14 0.5 0.866025
d 5 5 5 4.02429e-14 0.866025 0.5
d 5 5 5 4.64686e-14 1 4.64686e-14
d 5 5 5 4.02429e-14 0.866025 -0.5
d 5 5 5 2.32343e-14 0.5 -0.866025
d 5 5 5 -0 0 1
d 5 5 5 -0.25 0.433013 0.866025
d 5 5 5 -0.433013 0.75 0.5
d 5 5 5 -0.5 0.866025 4.64686e-14
d 5 5 5 -0.433013 0.75 -0.5
d 5 5 5 -0.25 0.433013 -0.866025
d 5 5 5 -0 0 1
d 5 5 5 -0.433013 0.25 0.866025
d 5 5 5 -0.75 0.433013 0.5
d 5 5 5 -0.866025 0.5 4.64686e-14
d 5 5 5 -0.75 0.433013 -0.5
d 5 5 5 -0.433013 0.25 -0.866025
d 5 5 5 -0 0 1
d 5 5 5 -0.5 4.64686e-14 0.866025
d 5 5 5 -0.866025 8.04859e-14 0.5
d 5 5 5 -1 9.29371e-14 4.64686e-14
d 5 5 5 -0.866025 8.04859e-14 -0.5
d 5 5 5 -0.5 4.64686e-14 -0.866025
d 5 5 5 -0 -0 1
d 5 5 5 -0.433013 -0.25 0.866025
d 5 5 5 -0.75 -0.433013 0.5
d 5 5 5 -0.866025 -0.5 4.64686e-14
d 5 5 5 -0.75 -0.433013 -0.5
d 5 5 5 -0.433013 -0.25 -0.866025
d 5 5 5 -0 -0 1
d 5 5 5 -0.25 -0.433013 0.866025
d 5 5 5 -0.433013 -0.75 0.5
d 5 5 5 -0.5 -0.866025 4.64686e-14
d 5 5 5 -0.433013 -0.75 -0.5
d 5 5 5 -0.25 -0.433013 -0.866025
d 5 5 5 -0 -0 1
d 5 5 5 -6.98139e-14 -0.5 0.866025
d 5 5 5 -1.20921e-13 -0.866025 0.5
d 5 5 5 -1.39628e-13 -1 4.64686e-14
d 5 5 5 -1.20921e-13 -0.866025 -0.5
d 5 5 5 -6.98139e-14 -0.5 -0.866025
d 5 5 5 0 -0 1
d 5 5 5 0.25 -0.433013 0.866025
d 5 5 5 0.433013 -0.75 0.5
d 5 5 5 0.5 -0.866025 4.64686e-14
d 5 5 5 0.433013 -0.75 -0.5
d 5 5 5 0.25 -0.433013 -0.866025
d 5 5 5 0 -0 1
d 5 5 5 0.433013 -0.25 0.866025
d 5 5 5 0.75 -0.433013 0.5
d 5 5 5 0.866025 -0.5 4.64686e-14
d 5 5 5 0.75 -0.433013 -0.5
d 5 5 5 0.433013 -0.25 -0.866025
