99
Liquid Crystals with Colloide in temperature=2.5, and potential=-5.81549e-23
Sp 0.0544507 1.64046 2.35338 0.226286 0.175019 0.958208
Sp 0.728485 0.842795 -0.0104124 0.595794 0.802377 -0.0349309
Sp 0.787282 0.260533 2.02458 0.85016 -0.230333 0.473472
Sp 0.413662 -0.368723 -0.225282 -0.117504 0.481758 -0.868391
Sp 2.13565 -0.151876 0.435389 -0.00861917 -0.0780039 -0.996916
Sp 1.17057 -0.36541 1.26644 0.9091 -0.0238792 0.415894
Sp 1.83744 -0.0842079 2.17482 -0.926764 -0.179979 0.329721
Sp -0.413535 2.16612 1.00544 -0.0546897 -0.536928 0.841854
Sp -0.428783 1.79638 2.12903 0.153171 0.861557 0.484002
Sp 1.77192 2.07995 0.193498 0.897579 0.386515 0.212034
Sp 1.07906 0.0890148 0.67374 0.211312 0.907374 0.363346
Sp 0.0807133 -0.276699 0.102197 0.334707 -0.939694 0.0703281
Sp 0.781526 1.58681 0.450763 0.0186748 0.529979 0.847805
Sp -0.188339 2.41657 0.890155 -0.686636 -0.683606 0.247414
Sp 1.92259 1.58168 -0.275383 0.774779 0.630828 -0.0421127
Sp 1.77353 2.36106 0.315966 0.0814148 0.978784 0.188027
Sp 1.28446 -0.249578 2.03351 -0.166412 0.0315778 0.985551
Sp 1.86616 0.329226 1.29179 0.86932 0.316912 0.379275
Sp 1.39452 0.20917 0.572912 -0.983935 0.114151 -0.137264
Sp -0.168811 -0.223415 1.67156 0.475055 0.876291 -0.0802283
Sp 1.1125 0.370685 0.380019 -0.589536 0.250572 -0.767894
Sp 2.15806 1.85001 0.11581 0.182394 0.957245 0.224531
Sp 0.11111 1.88063 0.377856 0.115252 0.836295 0.53603
Sp 2.01368 1.41702 2.06821 0.218129 0.953594 0.207554
Sp 0.154724 0.352355 0.661913 0.083439 0.876796 -0.473568
Sp 2.37923 1.95777 1.27585 0.738711 0.536678 0.407778
Sp 0.725603 1.70481 -0.44155 -0.387156 0.42883 0.81622
d 5 5 5 0 0 1
d 5 5 5 0.5 0 0.866025
d 5 5 5 0.866025 0 0.5
d 5 5 5 1 0 4.64686e-14
d 5 5 5 0.866025 0 -0.5
d 5 5 5 0.5 0 -0.866025
d 5 5 5 0 0 1
d 5 5 5 0.433013 0.25 0.866025
d 5 5 5 0.75 0.433013 0.5
d 5 5 5 0.866025 0.5 4.64686e-14
d 5 5 5 0.75 0.433013 -0.5
d 5 5 5 0.433013 0.25 -0.866025
d 5 5 5 0 0 1
d 5 5 5 0.25 0.433013 0.866025
d 5 5 5 0.433013 0.75 0.5
d 5 5 5 0.5 0.866025 4.64686e-14
d 5 5 5 0.433013 0.75 -0.5
d 5 5 5 0.25 0.433013 -0.866025
d 5 5 5 0 0 1
d 5 5 5 2.32343e-14 0.5 0.866025
d 5 5 5 4.02429e-14 0.866025 0.5
d 5 5 5 4.64686e-14 1 4.64686e-14
d 5 5 5 4.02429e-14 0.866025 -0.5
d 5 5 5 2.32343e-14 0.5 -0.866025
d 5 5 5 -0 0 1
d 5 5 5 -0.25 0.433013 0.866025
d 5 5 5 -0.433013 0.75 0.5
d 5 5 5 -0.5 0.866025 4.64686e-14
d 5 5 5 -0.433013 0.75 -0.5
d 5 5 5 -0.25 0.433013 -0.866025
d 5 5 5 -0 0 1
d 5 5 5 -0.433013 0.25 0.866025
d 5 5 5 -0.75 0.433013 0.5
d 5 5 5 -0.866025 0.5 4.64686e-14
d 5 5 5 -0.75 0.433013 -0.5
d 5 5 5 -0.433013 0.25 -0.866025
d 5 5 5 -0 0 1
d 5 5 5 -0.5 4.64686e-14 0.866025
d 5 5 5 -0.866025 8.04859e-14 0.5
d 5 5 5 -1 9.29371e-14 4.64686e-14
d 5 5 5 -0.866025 8.04859e-14 -0.5
d 5 5 5 -0.5 4.64686e-14 -0.866025
d 5 5 5 -0 -0 1
d 5 5 5 -0.433013 -0.25 0.866025
d 5 5 5 -0.75 -0.433013 0.5
d 5 5 5 -0.866025 -0.5 4.64686e-14
d 5 5 5 -0.75 -0.433013 -0.5
d 5 5 5 -0.433013 -0.25 -0.866025
d 5 5 5 -0 -0 1
d 5 5 5 -0.25 -0.433013 0.866025
d 5 5 5 -0.433013 -0.75 0.5
d 5 5 5 -0.5 -0.866025 4.64686e-14
d 5 5 5 -0.433013 -0.75 -0.5
d 5 5 5 -0.25 -0.433013 -0.866025
d 5 5 5 -0 -0 1
d 5 5 5 -6.98139e-14 -0.5 0.866025
d 5 5 5 -1.20921e-13 -0.866025 0.5
d 5 5 5 -1.39628e-13 -1 4.64686e-14
d 5 5 5 -1.20921e-13 -0.866025 -0.5
d 5 5 5 -6.98139e-14 -0.5 -0.866025
d 5 5 5 0 -0 1
d 5 5 5 0.25 -0.433013 0.866025
d 5 5 5 0.433013 -0.75 0.5
d 5 5 5 0.5 -0.866025 4.64686e-14
d 5 5 5 0.433013 -0.75 -0.5
d 5 5 5 0.25 -0.433013 -0.866025
d 5 5 5 0 -0 1
d 5 5 5 0.433013 -0.25 0.866025
d 5 5 5 0.75 -0.433013 0.5
d 5 5 5 0.866025 -0.5 4.64686e-14
d 5 5 5 0.75 -0.433013 -0.5
d 5 5 5 0.433013 -0.25 -0.866025
