99
Liquid Crystals with Colloide in temperature=0.5, and potential=-9.10947e-23
Sp 0.210057 0.674728 -0.00618585 0.231626 -0.57062 0.787872
Sp 1.62848 2.31222 -0.0360811 0.861031 0.508474 0.00893828
Sp 1.78005 1.73908 -0.439739 0.518982 0.167583 0.838196
Sp -0.0379211 2.05981 -0.016102 -0.636389 0.62987 -0.445278
Sp 0.401249 -0.451717 0.647026 0.548716 -0.289092 -0.784434
Sp -0.0119122 0.56537 1.91542 0.914151 0.206719 -0.348705
Sp 0.746484 0.869197 0.426071 -0.993711 -0.100904 0.0485401
Sp 1.0785 1.5679 0.251169 -0.363187 0.230316 0.902801
Sp -0.328864 1.46509 0.710587 0.113733 0.992314 0.048756
Sp 0.610224 0.393481 2.40085 0.861496 0.505326 -0.04969
Sp 2.39674 -0.180785 1.47288 -0.0612953 0.670976 0.738941
Sp 1.14428 2.38818 1.97412 0.465622 -0.855528 -0.226425
Sp -0.19778 2.39834 0.862606 -0.651413 0.451527 0.609741
Sp 2.03598 1.35087 1.12393 -0.942859 -0.22606 0.244773
Sp 2.32038 0.76661 -0.190636 0.342334 0.931971 0.119325
Sp 1.33057 -0.321517 0.447338 -0.0767952 0.983822 0.161854
Sp 0.449028 2.43753 1.44503 -0.161086 -0.0304449 0.986471
Sp -0.415858 -0.259952 0.546208 0.965675 0.115538 0.232642
Sp 2.32547 -0.0730088 1.50092 -0.834327 -0.535807 0.129653
Sp 2.17468 1.49861 2.42246 0.0735105 0.995731 0.0558125
Sp 2.22821 0.339756 2.35197 -0.222401 0.211714 -0.951691
Sp 0.376315 0.709229 0.694924 0.562238 0.71956 0.40758
Sp 2.14257 1.62988 0.403915 -0.13417 0.510257 0.849492
Sp 0.224831 0.946858 1.78302 0.334018 0.942558 0.00398083
Sp 0.446639 1.46718 0.420506 0.0995719 0.994891 0.0166769
Sp -0.429553 0.783478 1.66153 0.817123 0.149197 0.556821
Sp 0.906332 -0.23917 1.5104 -0.875146 0.47345 0.0998221
d 5 5 5 0 0 1
d 5 5 5 0.5 0 0.866025
d 5 5 5 0.866025 0 0.5
d 5 5 5 1 0 4.64686e-14
d 5 5 5 0.866025 0 -0.5
d 5 5 5 0.5 0 -0.866025
d 5 5 5 0 0 1
d 5 5 5 0.433013 0.25 0.866025
d 5 5 5 0.75 0.433013 0.5
d 5 5 5 0.866025 0.5 4.64686e-14
d 5 5 5 0.75 0.433013 -0.5
d 5 5 5 0.433013 0.25 -0.866025
d 5 5 5 0 0 1
d 5 5 5 0.25 0.433013 0.866025
d 5 5 5 0.433013 0.75 0.5
d 5 5 5 0.5 0.866025 4.64686e-14
d 5 5 5 0.433013 0.75 -0.5
d 5 5 5 0.25 0.433013 -0.866025
d 5 5 5 0 0 1
d 5 5 5 2.32343e-14 0.5 0.866025
d 5 5 5 4.02429e-14 0.866025 0.5
d 5 5 5 4.64686e-14 1 4.64686e-14
d 5 5 5 4.02429e-14 0.866025 -0.5
d 5 5 5 2.32343e-14 0.5 -0.866025
d 5 5 5 -0 0 1
d 5 5 5 -0.25 0.433013 0.866025
d 5 5 5 -0.433013 0.75 0.5
d 5 5 5 -0.5 0.866025 4.64686e-14
d 5 5 5 -0.433013 0.75 -0.5
d 5 5 5 -0.25 0.433013 -0.866025
d 5 5 5 -0 0 1
d 5 5 5 -0.433013 0.25 0.866025
d 5 5 5 -0.75 0.433013 0.5
d 5 5 5 -0.866025 0.5 4.64686e-14
d 5 5 5 -0.75 0.433013 -0.5
d 5 5 5 -0.433013 0.25 -0.866025
d 5 5 5 -0 0 1
d 5 5 5 -0.5 4.64686e-14 0.866025
d 5 5 5 -0.866025 8.04859e-14 0.5
d 5 5 5 -1 9.29371e-14 4.64686e-14
d 5 5 5 -0.866025 8.04859e-14 -0.5
d 5 5 5 -0.5 4.64686e-14 -0.866025
d 5 5 5 -0 -0 1
d 5 5 5 -0.433013 -0.25 0.866025
d 5 5 5 -0.75 -0.433013 0.5
d 5 5 5 -0.866025 -0.5 4.64686e-14
d 5 5 5 -0.75 -0.433013 -0.5
d 5 5 5 -0.433013 -0.25 -0.866025
d 5 5 5 -0 -0 1
d 5 5 5 -0.25 -0.433013 0.866025
d 5 5 5 -0.433013 -0.75 0.5
d 5 5 5 -0.5 -0.866025 4.64686e-14
d 5 5 5 -0.433013 -0.75 -0.5
d 5 5 5 -0.25 -0.433013 -0.866025
d 5 5 5 -0 -0 1
d 5 5 5 -6.98139e-14 -0.5 0.866025
d 5 5 5 -1.20921e-13 -0.866025 0.5
d 5 5 5 -1.39628e-13 -1 4.64686e-14
d 5 5 5 -1.20921e-13 -0.866025 -0.5
d 5 5 5 -6.98139e-14 -0.5 -0.866025
d 5 5 5 0 -0 1
d 5 5 5 0.25 -0.433013 0.866025
d 5 5 5 0.433013 -0.75 0.5
d 5 5 5 0.5 -0.866025 4.64686e-14
d 5 5 5 0.433013 -0.75 -0.5
d 5 5 5 0.25 -0.433013 -0.866025
d 5 5 5 0 -0 1
d 5 5 5 0.433013 -0.25 0.866025
d 5 5 5 0.75 -0.433013 0.5
d 5 5 5 0.866025 -0.5 4.64686e-14
d 5 5 5 0.75 -0.433013 -0.5
d 5 5 5 0.433013 -0.25 -0.866025
