99
Liquid Crystals with Colloide in temperature=0.4, and potential=-9.91489e-23
Sp 1.50988 0.846047 -0.0802799 -0.158128 -0.549586 0.820336
Sp 1.59673 -0.0548376 2.43628 0.782114 0.611649 -0.11909
Sp 0.903524 0.40173 0.496297 0.26618 -0.150919 0.952036
Sp -0.220788 -0.428681 -0.0122121 -0.60781 0.687714 -0.397009
Sp 0.499087 -0.454936 0.738953 0.576336 -0.287646 -0.764916
Sp -0.494114 1.05206 1.63308 0.832744 0.341927 -0.435458
Sp 1.60874 -0.237222 0.745667 -0.901745 -0.408997 0.139921
Sp 0.910197 1.10205 0.247881 -0.407503 0.112063 0.906302
Sp 0.12213 1.34423 1.58855 0.21254 0.941384 0.261959
Sp 0.382139 0.899863 0.554539 0.768702 0.597982 0.226968
Sp 2.43523 -0.482765 1.7384 -0.0526965 0.594085 0.802674
Sp 1.06426 2.14463 2.23375 0.432592 -0.887831 -0.156911
Sp 0.31319 -0.452394 0.244336 -0.618162 0.565439 0.546036
Sp 1.84887 1.63455 0.996692 -0.966338 -0.151487 0.207949
Sp 2.22131 1.24778 -0.0718917 0.28115 0.949097 0.142021
Sp 1.42334 -0.182248 0.268118 -0.0574287 0.990288 0.126618
Sp 1.2523 -0.173615 1.57496 0.0366094 0.0658188 0.99716
Sp 0.276494 1.9391 0.58373 0.972633 -0.0895229 0.214409
Sp 2.14232 0.533453 1.34622 -0.909997 -0.403315 0.0961367
Sp 2.29189 1.45422 2.31391 0.103852 0.994169 0.0290389
Sp -0.339559 0.63646 -0.198712 -0.132246 0.30984 -0.941547
Sp 0.885148 0.0231007 1.72032 0.618593 0.49046 0.613833
Sp 2.31363 0.768748 -0.0370038 -0.122488 0.370168 0.920854
Sp 0.224831 0.946858 1.78302 0.334018 0.942558 0.00398083
Sp 0.261553 1.76062 -0.248191 0.0493107 0.987685 -0.148481
Sp 2.42926 0.125134 1.49169 0.840146 -0.0120009 0.542227
Sp 0.274085 0.74818 1.5869 -0.81088 0.576565 0.100233
d 5 5 5 0 0 1
d 5 5 5 0.5 0 0.866025
d 5 5 5 0.866025 0 0.5
d 5 5 5 1 0 4.64686e-14
d 5 5 5 0.866025 0 -0.5
d 5 5 5 0.5 0 -0.866025
d 5 5 5 0 0 1
d 5 5 5 0.433013 0.25 0.866025
d 5 5 5 0.75 0.433013 0.5
d 5 5 5 0.866025 0.5 4.64686e-14
d 5 5 5 0.75 0.433013 -0.5
d 5 5 5 0.433013 0.25 -0.866025
d 5 5 5 0 0 1
d 5 5 5 0.25 0.433013 0.866025
d 5 5 5 0.433013 0.75 0.5
d 5 5 5 0.5 0.866025 4.64686e-14
d 5 5 5 0.433013 0.75 -0.5
d 5 5 5 0.25 0.433013 -0.866025
d 5 5 5 0 0 1
d 5 5 5 2.32343e-14 0.5 0.866025
d 5 5 5 4.02429e-14 0.866025 0.5
d 5 5 5 4.64686e-14 1 4.64686e-14
d 5 5 5 4.02429e-14 0.866025 -0.5
d 5 5 5 2.32343e-14 0.5 -0.866025
d 5 5 5 -0 0 1
d 5 5 5 -0.25 0.433013 0.866025
d 5 5 5 -0.433013 0.75 0.5
d 5 5 5 -0.5 0.866025 4.64686e-14
d 5 5 5 -0.433013 0.75 -0.5
d 5 5 5 -0.25 0.433013 -0.866025
d 5 5 5 -0 0 1
d 5 5 5 -0.433013 0.25 0.866025
d 5 5 5 -0.75 0.433013 0.5
d 5 5 5 -0.866025 0.5 4.64686e-14
d 5 5 5 -0.75 0.433013 -0.5
d 5 5 5 -0.433013 0.25 -0.866025
d 5 5 5 -0 0 1
d 5 5 5 -0.5 4.64686e-14 0.866025
d 5 5 5 -0.866025 8.04859e-14 0.5
d 5 5 5 -1 9.29371e-14 4.64686e-14
d 5 5 5 -0.866025 8.04859e-14 -0.5
d 5 5 5 -0.5 4.64686e-14 -0.866025
d 5 5 5 -0 -0 1
d 5 5 5 -0.433013 -0.25 0.866025
d 5 5 5 -0.75 -0.433013 0.5
d 5 5 5 -0.866025 -0.5 4.64686e-14
d 5 5 5 -0.75 -0.433013 -0.5
d 5 5 5 -0.433013 -0.25 -0.866025
d 5 5 5 -0 -0 1
d 5 5 5 -0.25 -0.433013 0.866025
d 5 5 5 -0.433013 -0.75 0.5
d 5 5 5 -0.5 -0.866025 4.64686e-14
d 5 5 5 -0.433013 -0.75 -0.5
d 5 5 5 -0.25 -0.433013 -0.866025
d 5 5 5 -0 -0 1
d 5 5 5 -6.98139e-14 -0.5 0.866025
d 5 5 5 -1.20921e-13 -0.866025 0.5
d 5 5 5 -1.39628e-13 -1 4.64686e-14
d 5 5 5 -1.20921e-13 -0.866025 -0.5
d 5 5 5 -6.98139e-14 -0.5 -0.866025
d 5 5 5 0 -0 1
d 5 5 5 0.25 -0.433013 0.866025
d 5 5 5 0.433013 -0.75 0.5
d 5 5 5 0.5 -0.866025 4.64686e-14
d 5 5 5 0.433013 -0.75 -0.5
d 5 5 5 0.25 -0.433013 -0.866025
d 5 5 5 0 -0 1
d 5 5 5 0.433013 -0.25 0.866025
d 5 5 5 0.75 -0.433013 0.5
d 5 5 5 0.866025 -0.5 4.64686e-14
d 5 5 5 0.75 -0.433013 -0.5
d 5 5 5 0.433013 -0.25 -0.866025
