99
Liquid Crystals with Colloide in temperature=1.6, and potential=-1.86104e-23
Sp 0.255595 1.62059 0.215023 0.235094 0.123741 0.964064
Sp 0.605105 0.353174 1.25551 0.636507 0.703896 0.31526
Sp 2.36127 1.67373 0.340237 0.537539 0.113769 0.835529
Sp -0.447306 0.0795119 0.706539 -0.352734 0.604991 -0.713838
Sp 2.1154 2.42961 -0.168049 0.0103113 -0.13754 -0.990443
Sp 1.51158 0.265001 1.00535 0.937101 0.127767 0.324833
Sp 0.798478 0.573473 -0.244158 -0.781789 -0.0905253 0.616937
Sp 2.2602 -0.0177979 2.35964 -0.117133 -0.246113 0.962137
Sp -0.225229 1.96752 1.59029 0.213522 0.912266 0.349543
Sp 2.37248 1.5824 2.46004 0.976574 0.215029 -0.00806403
Sp -0.0238397 0.851678 2.05592 -0.0949788 0.848895 0.519957
Sp 0.985571 -0.263215 -0.238686 0.515385 -0.85693 0.0070499
Sp 1.95873 1.62058 0.207992 -0.401628 0.518678 0.754764
Sp 0.753326 -0.256082 0.924995 -0.613506 -0.749067 0.250018
Sp 0.363861 0.704 2.49501 0.659675 0.751522 0.00656929
Sp 0.798305 0.56597 0.222725 -0.18983 0.977751 0.0892551
Sp 0.778739 -0.215525 0.0716237 -0.215432 0.0316187 0.976007
Sp 1.09611 0.406581 1.53572 0.766541 0.364376 0.528815
Sp 0.322206 1.80683 0.272085 -0.97309 -0.210201 -0.0943955
Sp 0.37701 1.25048 0.210096 0.381825 0.896401 0.225111
Sp 1.82574 -0.00953446 0.695902 -0.488377 0.199678 -0.84948
Sp -0.382115 1.72894 0.799513 0.277677 0.876786 0.39261
Sp -0.0809051 1.03514 0.432096 0.0822867 0.745107 0.661849
Sp -0.278035 1.75777 -0.129025 0.342815 0.876477 0.338032
Sp 0.100566 1.43837 2.41153 0.0744675 0.950565 -0.301466
Sp -0.30902 1.40738 2.49591 0.681178 0.302828 0.666552
Sp 0.973526 0.01672 -0.200556 -0.74202 0.487475 0.46019
d 5 5 5 0 0 1
d 5 5 5 0.5 0 0.866025
d 5 5 5 0.866025 0 0.5
d 5 5 5 1 0 4.64686e-14
d 5 5 5 0.866025 0 -0.5
d 5 5 5 0.5 0 -0.866025
d 5 5 5 0 0 1
d 5 5 5 0.433013 0.25 0.866025
d 5 5 5 0.75 0.433013 0.5
d 5 5 5 0.866025 0.5 4.64686e-14
d 5 5 5 0.75 0.433013 -0.5
d 5 5 5 0.433013 0.25 -0.866025
d 5 5 5 0 0 1
d 5 5 5 0.25 0.433013 0.866025
d 5 5 5 0.433013 0.75 0.5
d 5 5 5 0.5 0.866025 4.64686e-14
d 5 5 5 0.433013 0.75 -0.5
d 5 5 5 0.25 0.433013 -0.866025
d 5 5 5 0 0 1
d 5 5 5 2.32343e-14 0.5 0.866025
d 5 5 5 4.02429e-14 0.866025 0.5
d 5 5 5 4.64686e-14 1 4.64686e-14
d 5 5 5 4.02429e-14 0.866025 -0.5
d 5 5 5 2.32343e-14 0.5 -0.866025
d 5 5 5 -0 0 1
d 5 5 5 -0.25 0.433013 0.866025
d 5 5 5 -0.433013 0.75 0.5
d 5 5 5 -0.5 0.866025 4.64686e-14
d 5 5 5 -0.433013 0.75 -0.5
d 5 5 5 -0.25 0.433013 -0.866025
d 5 5 5 -0 0 1
d 5 5 5 -0.433013 0.25 0.866025
d 5 5 5 -0.75 0.433013 0.5
d 5 5 5 -0.866025 0.5 4.64686e-14
d 5 5 5 -0.75 0.433013 -0.5
d 5 5 5 -0.433013 0.25 -0.866025
d 5 5 5 -0 0 1
d 5 5 5 -0.5 4.64686e-14 0.866025
d 5 5 5 -0.866025 8.04859e-14 0.5
d 5 5 5 -1 9.29371e-14 4.64686e-14
d 5 5 5 -0.866025 8.04859e-14 -0.5
d 5 5 5 -0.5 4.64686e-14 -0.866025
d 5 5 5 -0 -0 1
d 5 5 5 -0.433013 -0.25 0.866025
d 5 5 5 -0.75 -0.433013 0.5
d 5 5 5 -0.866025 -0.5 4.64686e-14
d 5 5 5 -0.75 -0.433013 -0.5
d 5 5 5 -0.433013 -0.25 -0.866025
d 5 5 5 -0 -0 1
d 5 5 5 -0.25 -0.433013 0.866025
d 5 5 5 -0.433013 -0.75 0.5
d 5 5 5 -0.5 -0.866025 4.64686e-14
d 5 5 5 -0.433013 -0.75 -0.5
d 5 5 5 -0.25 -0.433013 -0.866025
d 5 5 5 -0 -0 1
d 5 5 5 -6.98139e-14 -0.5 0.866025
d 5 5 5 -1.20921e-13 -0.866025 0.5
d 5 5 5 -1.39628e-13 -1 4.64686e-14
d 5 5 5 -1.20921e-13 -0.866025 -0.5
d 5 5 5 -6.98139e-14 -0.5 -0.866025
d 5 5 5 0 -0 1
d 5 5 5 0.25 -0.433013 0.866025
d 5 5 5 0.433013 -0.75 0.5
d 5 5 5 0.5 -0.866025 4.64686e-14
d 5 5 5 0.433013 -0.75 -0.5
d 5 5 5 0.25 -0.433013 -0.866025
d 5 5 5 0 -0 1
d 5 5 5 0.433013 -0.25 0.866025
d 5 5 5 0.75 -0.433013 0.5
d 5 5 5 0.866025 -0.5 4.64686e-14
d 5 5 5 0.75 -0.433013 -0.5
d 5 5 5 0.433013 -0.25 -0.866025
