99
Liquid Crystals with Colloide in temperature=2.7, and potential=-4.05088e-23
Sp -0.206338 1.64903 1.892 0.188825 0.203806 0.960629
Sp 1.26709 0.497556 -0.0209343 0.726162 0.686071 -0.0446646
Sp 0.673808 0.356403 2.12844 0.835163 -0.211914 0.507538
Sp -0.332488 0.2915 2.37271 -0.260848 0.537442 -0.801944
Sp -0.424148 0.101407 1.51475 0.124715 -0.0266449 -0.991835
Sp 0.573352 0.338232 1.42146 0.852496 0.156562 0.498738
Sp 1.99565 0.259815 -0.0785008 -0.859144 -0.0896539 0.503818
Sp 1.86376 -0.0885085 1.72706 -0.218315 -0.311048 0.92498
Sp -0.195559 1.82293 1.79859 0.214521 0.885708 0.411706
Sp 1.01234 1.63402 -0.224459 0.911166 0.38026 0.158679
Sp -0.0396077 -0.488974 1.54653 -0.061982 0.792996 0.606066
Sp 0.419574 -0.28853 1.19044 0.394264 -0.85575 0.335034
Sp 0.784336 1.62408 0.232028 0.0223036 0.56094 0.827556
Sp -0.116471 2.36433 1.95651 -0.596006 -0.645175 0.478043
Sp 2.13044 1.37616 0.141556 0.819212 0.569855 0.0644752
Sp 1.50122 2.3723 -0.0172849 0.0177512 0.993886 0.108976
Sp 0.946952 2.09633 1.42293 -0.277119 -0.134837 0.951328
Sp 1.22289 -0.416212 2.14913 0.758435 0.13208 0.638225
Sp -0.453402 0.110908 0.171421 -0.949214 0.121797 -0.290101
Sp 2.00985 0.0324159 2.15654 0.26669 0.963011 0.0385426
Sp 1.36137 -0.44102 0.394906 -0.574896 0.067816 -0.815411
Sp 2.34402 1.52171 -0.181979 0.241097 0.955794 0.168313
Sp 2.45848 1.44262 -0.0956763 -0.0410579 0.860489 0.507811
Sp 1.8923 1.16616 2.13872 0.201339 0.950147 0.23808
Sp -0.414963 1.11651 0.28555 -0.0636612 0.58412 -0.809167
Sp 2.27425 1.99319 1.10529 0.734738 0.562401 0.379295
Sp 1.02671 0.29018 2.17878 -0.258649 0.753544 0.604378
d 5 5 5 0 0 1
d 5 5 5 0.5 0 0.866025
d 5 5 5 0.866025 0 0.5
d 5 5 5 1 0 4.64686e-14
d 5 5 5 0.866025 0 -0.5
d 5 5 5 0.5 0 -0.866025
d 5 5 5 0 0 1
d 5 5 5 0.433013 0.25 0.866025
d 5 5 5 0.75 0.433013 0.5
d 5 5 5 0.866025 0.5 4.64686e-14
d 5 5 5 0.75 0.433013 -0.5
d 5 5 5 0.433013 0.25 -0.866025
d 5 5 5 0 0 1
d 5 5 5 0.25 0.433013 0.866025
d 5 5 5 0.433013 0.75 0.5
d 5 5 5 0.5 0.866025 4.64686e-14
d 5 5 5 0.433013 0.75 -0.5
d 5 5 5 0.25 0.433013 -0.866025
d 5 5 5 0 0 1
d 5 5 5 2.32343e-14 0.5 0.866025
d 5 5 5 4.02429e-14 0.866025 0.5
d 5 5 5 4.64686e-14 1 4.64686e-14
d 5 5 5 4.02429e-14 0.866025 -0.5
d 5 5 5 2.32343e-14 0.5 -0.866025
d 5 5 5 -0 0 1
d 5 5 5 -0.25 0.433013 0.866025
d 5 5 5 -0.433013 0.75 0.5
d 5 5 5 -0.5 0.866025 4.64686e-14
d 5 5 5 -0.433013 0.75 -0.5
d 5 5 5 -0.25 0.433013 -0.866025
d 5 5 5 -0 0 1
d 5 5 5 -0.433013 0.25 0.866025
d 5 5 5 -0.75 0.433013 0.5
d 5 5 5 -0.866025 0.5 4.64686e-14
d 5 5 5 -0.75 0.433013 -0.5
d 5 5 5 -0.433013 0.25 -0.866025
d 5 5 5 -0 0 1
d 5 5 5 -0.5 4.64686e-14 0.866025
d 5 5 5 -0.866025 8.04859e-14 0.5
d 5 5 5 -1 9.29371e-14 4.64686e-14
d 5 5 5 -0.866025 8.04859e-14 -0.5
d 5 5 5 -0.5 4.64686e-14 -0.866025
d 5 5 5 -0 -0 1
d 5 5 5 -0.433013 -0.25 0.866025
d 5 5 5 -0.75 -0.433013 0.5
d 5 5 5 -0.866025 -0.5 4.64686e-14
d 5 5 5 -0.75 -0.433013 -0.5
d 5 5 5 -0.433013 -0.25 -0.866025
d 5 5 5 -0 -0 1
d 5 5 5 -0.25 -0.433013 0.866025
d 5 5 5 -0.433013 -0.75 0.5
d 5 5 5 -0.5 -0.866025 4.64686e-14
d 5 5 5 -0.433013 -0.75 -0.5
d 5 5 5 -0.25 -0.433013 -0.866025
d 5 5 5 -0 -0 1
d 5 5 5 -6.98139e-14 -0.5 0.866025
d 5 5 5 -1.20921e-13 -0.866025 0.5
d 5 5 5 -1.39628e-13 -1 4.64686e-14
d 5 5 5 -1.20921e-13 -0.866025 -0.5
d 5 5 5 -6.98139e-14 -0.5 -0.866025
d 5 5 5 0 -0 1
d 5 5 5 0.25 -0.433013 0.866025
d 5 5 5 0.433013 -0.75 0.5
d 5 5 5 0.5 -0.866025 4.64686e-14
d 5 5 5 0.433013 -0.75 -0.5
d 5 5 5 0.25 -0.433013 -0.866025
d 5 5 5 0 -0 1
d 5 5 5 0.433013 -0.25 0.866025
d 5 5 5 0.75 -0.433013 0.5
d 5 5 5 0.866025 -0.5 4.64686e-14
d 5 5 5 0.75 -0.433013 -0.5
d 5 5 5 0.433013 -0.25 -0.866025
