99
Liquid Crystals with Colloide in temperature=0.5, and potential=-9.91903e-23
Sp 2.30947 1.19691 -0.272542 0.0400461 -0.514505 0.856552
Sp 1.62848 2.31222 -0.0360811 0.861031 0.508474 0.00893828
Sp 1.78005 1.73908 -0.439739 0.518982 0.167583 0.838196
Sp 0.0102519 2.1758 0.0897903 -0.625234 0.658656 -0.418634
Sp 0.457021 -0.156831 0.731866 0.579325 -0.219544 -0.784973
Sp -0.494709 1.25329 1.8056 0.832184 0.392065 -0.392115
Sp 0.785052 0.815794 0.265436 -0.993292 -0.115325 0.00845983
Sp 0.910197 1.10205 0.247881 -0.407503 0.112063 0.906302
Sp -0.236186 1.22647 0.773991 0.144891 0.987082 0.0683769
Sp 0.351467 -0.0323067 -0.331352 0.893767 0.448134 0.0188795
Sp 2.43523 -0.482765 1.7384 -0.0526965 0.594085 0.802674
Sp 1.15657 2.34567 2.25248 0.46999 -0.868548 -0.157268
Sp 0.0596022 2.48393 0.661025 -0.625399 0.503803 0.595868
Sp 2.03598 1.35087 1.12393 -0.942859 -0.22606 0.244773
Sp 2.32038 0.76661 -0.190636 0.342334 0.931971 0.119325
Sp 1.48127 -0.274168 0.261056 -0.0389274 0.992059 0.119596
Sp 0.679711 -0.479845 1.44369 -0.104293 -0.00987191 0.994498
Sp -0.225017 -0.493518 0.230116 0.987794 0.0580086 0.144564
Sp 2.14232 0.533453 1.34622 -0.909997 -0.403315 0.0961367
Sp 2.17468 1.49861 2.42246 0.0735105 0.995731 0.0558125
Sp 2.43762 0.79522 -0.23716 -0.186113 0.340221 -0.921744
Sp 0.556272 0.477177 0.856941 0.605068 0.659195 0.446491
Sp 2.31363 0.768748 -0.0370038 -0.122488 0.370168 0.920854
Sp 0.224831 0.946858 1.78302 0.334018 0.942558 0.00398083
Sp 0.0866503 1.79895 0.19884 0.00614538 0.999137 -0.04107
Sp -0.329081 1.04975 1.62721 0.823607 0.213495 0.525444
Sp 0.548538 -0.17552 1.35241 -0.890465 0.451646 0.0555683
d 5 5 5 0 0 1
d 5 5 5 0.5 0 0.866025
d 5 5 5 0.866025 0 0.5
d 5 5 5 1 0 4.64686e-14
d 5 5 5 0.866025 0 -0.5
d 5 5 5 0.5 0 -0.866025
d 5 5 5 0 0 1
d 5 5 5 0.433013 0.25 0.866025
d 5 5 5 0.75 0.433013 0.5
d 5 5 5 0.866025 0.5 4.64686e-14
d 5 5 5 0.75 0.433013 -0.5
d 5 5 5 0.433013 0.25 -0.866025
d 5 5 5 0 0 1
d 5 5 5 0.25 0.433013 0.866025
d 5 5 5 0.433013 0.75 0.5
d 5 5 5 0.5 0.866025 4.64686e-14
d 5 5 5 0.433013 0.75 -0.5
d 5 5 5 0.25 0.433013 -0.866025
d 5 5 5 0 0 1
d 5 5 5 2.32343e-14 0.5 0.866025
d 5 5 5 4.02429e-14 0.866025 0.5
d 5 5 5 4.64686e-14 1 4.64686e-14
d 5 5 5 4.02429e-14 0.866025 -0.5
d 5 5 5 2.32343e-14 0.5 -0.866025
d 5 5 5 -0 0 1
d 5 5 5 -0.25 0.433013 0.866025
d 5 5 5 -0.433013 0.75 0.5
d 5 5 5 -0.5 0.866025 4.64686e-14
d 5 5 5 -0.433013 0.75 -0.5
d 5 5 5 -0.25 0.433013 -0.866025
d 5 5 5 -0 0 1
d 5 5 5 -0.433013 0.25 0.866025
d 5 5 5 -0.75 0.433013 0.5
d 5 5 5 -0.866025 0.5 4.64686e-14
d 5 5 5 -0.75 0.433013 -0.5
d 5 5 5 -0.433013 0.25 -0.866025
d 5 5 5 -0 0 1
d 5 5 5 -0.5 4.64686e-14 0.866025
d 5 5 5 -0.866025 8.04859e-14 0.5
d 5 5 5 -1 9.29371e-14 4.64686e-14
d 5 5 5 -0.866025 8.04859e-14 -0.5
d 5 5 5 -0.5 4.64686e-14 -0.866025
d 5 5 5 -0 -0 1
d 5 5 5 -0.433013 -0.25 0.866025
d 5 5 5 -0.75 -0.433013 0.5
d 5 5 5 -0.866025 -0.5 4.64686e-14
d 5 5 5 -0.75 -0.433013 -0.5
d 5 5 5 -0.433013 -0.25 -0.866025
d 5 5 5 -0 -0 1
d 5 5 5 -0.25 -0.433013 0.866025
d 5 5 5 -0.433013 -0.75 0.5
d 5 5 5 -0.5 -0.866025 4.64686e-14
d 5 5 5 -0.433013 -0.75 -0.5
d 5 5 5 -0.25 -0.433013 -0.866025
d 5 5 5 -0 -0 1
d 5 5 5 -6.98139e-14 -0.5 0.866025
d 5 5 5 -1.20921e-13 -0.866025 0.5
d 5 5 5 -1.39628e-13 -1 4.64686e-14
d 5 5 5 -1.20921e-13 -0.866025 -0.5
d 5 5 5 -6.98139e-14 -0.5 -0.866025
d 5 5 5 0 -0 1
d 5 5 5 0.25 -0.433013 0.866025
d 5 5 5 0.433013 -0.75 0.5
d 5 5 5 0.5 -0.866025 4.64686e-14
d 5 5 5 0.433013 -0.75 -0.5
d 5 5 5 0.25 -0.433013 -0.866025
d 5 5 5 0 -0 1
d 5 5 5 0.433013 -0.25 0.866025
d 5 5 5 0.75 -0.433013 0.5
d 5 5 5 0.866025 -0.5 4.64686e-14
d 5 5 5 0.75 -0.433013 -0.5
d 5 5 5 0.433013 -0.25 -0.866025
