99
Liquid Crystals with Colloide in temperature=2.3, and potential=-3.44753e-23
Sp 0.440051 1.46201 1.83846 0.353519 0.142732 0.924474
Sp 1.4966 0.921866 -0.329152 0.695496 0.712056 -0.0962388
Sp 0.150946 0.654725 2.43917 0.762546 -0.14809 0.629756
Sp 0.612164 0.16127 0.158624 -0.0701939 0.606143 -0.792252
Sp 2.31177 -0.11807 0.439674 0.0467434 -0.0651116 -0.996783
Sp 1.48463 0.0858817 1.38205 0.907306 0.0835952 0.412077
Sp 2.07979 -0.325934 1.35053 -0.957288 -0.254561 0.137111
Sp 0.450827 2.09285 0.693878 0.176546 -0.578774 0.796148
Sp -0.417416 1.78057 1.66416 0.16607 0.906624 0.387883
Sp 2.28654 2.22514 -0.261378 0.921534 0.379554 0.0819378
Sp 1.18675 -0.316306 1.13437 0.243936 0.840116 0.484459
Sp -0.199683 2.4937 2.41015 0.25452 -0.961928 -0.0995661
Sp 0.0313143 1.68243 -0.0551451 -0.173542 0.598389 0.782185
Sp 0.280471 -0.241544 0.283151 -0.685803 -0.717512 0.121863
Sp 2.48162 1.77565 -0.269267 0.800348 0.598435 -0.036325
Sp 2.04872 -0.135041 0.360264 0.13126 0.977426 0.165555
Sp 1.01715 -0.102924 -0.39144 -0.198158 0.0718476 0.977533
Sp 2.38079 0.403513 1.39217 0.886534 0.296091 0.35551
Sp 2.04465 -0.315826 0.165967 -0.968351 -0.0166489 -0.249036
Sp 0.227936 2.38704 1.89815 0.587299 0.808966 -0.025567
Sp 1.92022 0.0291561 0.417062 -0.457353 0.186178 -0.869578
Sp -0.337773 1.71985 0.575367 0.299296 0.892997 0.336123
Sp 0.422805 -0.472798 0.397253 0.166454 0.867294 0.469142
Sp 2.01368 1.41702 2.06821 0.218129 0.953594 0.207554
Sp -0.0593356 0.275434 0.74568 0.0273146 0.885204 -0.464401
Sp 2.47601 1.70648 1.40688 0.765971 0.476064 0.432031
Sp 0.338109 1.51194 -0.279225 -0.472989 0.36317 0.802739
d 5 5 5 0 0 1
d 5 5 5 0.5 0 0.866025
d 5 5 5 0.866025 0 0.5
d 5 5 5 1 0 4.64686e-14
d 5 5 5 0.866025 0 -0.5
d 5 5 5 0.5 0 -0.866025
d 5 5 5 0 0 1
d 5 5 5 0.433013 0.25 0.866025
d 5 5 5 0.75 0.433013 0.5
d 5 5 5 0.866025 0.5 4.64686e-14
d 5 5 5 0.75 0.433013 -0.5
d 5 5 5 0.433013 0.25 -0.866025
d 5 5 5 0 0 1
d 5 5 5 0.25 0.433013 0.866025
d 5 5 5 0.433013 0.75 0.5
d 5 5 5 0.5 0.866025 4.64686e-14
d 5 5 5 0.433013 0.75 -0.5
d 5 5 5 0.25 0.433013 -0.866025
d 5 5 5 0 0 1
d 5 5 5 2.32343e-14 0.5 0.866025
d 5 5 5 4.02429e-14 0.866025 0.5
d 5 5 5 4.64686e-14 1 4.64686e-14
d 5 5 5 4.02429e-14 0.866025 -0.5
d 5 5 5 2.32343e-14 0.5 -0.866025
d 5 5 5 -0 0 1
d 5 5 5 -0.25 0.433013 0.866025
d 5 5 5 -0.433013 0.75 0.5
d 5 5 5 -0.5 0.866025 4.64686e-14
d 5 5 5 -0.433013 0.75 -0.5
d 5 5 5 -0.25 0.433013 -0.866025
d 5 5 5 -0 0 1
d 5 5 5 -0.433013 0.25 0.866025
d 5 5 5 -0.75 0.433013 0.5
d 5 5 5 -0.866025 0.5 4.64686e-14
d 5 5 5 -0.75 0.433013 -0.5
d 5 5 5 -0.433013 0.25 -0.866025
d 5 5 5 -0 0 1
d 5 5 5 -0.5 4.64686e-14 0.866025
d 5 5 5 -0.866025 8.04859e-14 0.5
d 5 5 5 -1 9.29371e-14 4.64686e-14
d 5 5 5 -0.866025 8.04859e-14 -0.5
d 5 5 5 -0.5 4.64686e-14 -0.866025
d 5 5 5 -0 -0 1
d 5 5 5 -0.433013 -0.25 0.866025
d 5 5 5 -0.75 -0.433013 0.5
d 5 5 5 -0.866025 -0.5 4.64686e-14
d 5 5 5 -0.75 -0.433013 -0.5
d 5 5 5 -0.433013 -0.25 -0.866025
d 5 5 5 -0 -0 1
d 5 5 5 -0.25 -0.433013 0.866025
d 5 5 5 -0.433013 -0.75 0.5
d 5 5 5 -0.5 -0.866025 4.64686e-14
d 5 5 5 -0.433013 -0.75 -0.5
d 5 5 5 -0.25 -0.433013 -0.866025
d 5 5 5 -0 -0 1
d 5 5 5 -6.98139e-14 -0.5 0.866025
d 5 5 5 -1.20921e-13 -0.866025 0.5
d 5 5 5 -1.39628e-13 -1 4.64686e-14
d 5 5 5 -1.20921e-13 -0.866025 -0.5
d 5 5 5 -6.98139e-14 -0.5 -0.866025
d 5 5 5 0 -0 1
d 5 5 5 0.25 -0.433013 0.866025
d 5 5 5 0.433013 -0.75 0.5
d 5 5 5 0.5 -0.866025 4.64686e-14
d 5 5 5 0.433013 -0.75 -0.5
d 5 5 5 0.25 -0.433013 -0.866025
d 5 5 5 0 -0 1
d 5 5 5 0.433013 -0.25 0.866025
d 5 5 5 0.75 -0.433013 0.5
d 5 5 5 0.866025 -0.5 4.64686e-14
d 5 5 5 0.75 -0.433013 -0.5
d 5 5 5 0.433013 -0.25 -0.866025
