99
Liquid Crystals with Colloide in temperature=2.3, and potential=-4.00382e-23
Sp -0.199621 1.91362 2.20438 -0.85866 -0.162017 0.486266
Sp -0.097963 1.59566 1.15233 0.228475 0.340995 -0.911878
Sp 0.285347 0.20882 1.79056 0.860111 0.50166 0.0924456
Sp 0.195219 -0.0321287 0.639843 0.395908 0.912391 -0.103922
Sp 0.145708 1.14778 0.733097 0.54935 -0.826737 -0.12133
Sp 1.02452 1.47176 0.130367 0.814821 0.137936 -0.563064
Sp 0.530488 0.39068 0.800995 -0.135888 0.76009 0.63545
Sp 1.51448 0.857034 -0.0920738 -0.240768 0.496829 0.833782
Sp 2.27814 2.14088 0.913729 0.0669875 0.997239 -0.0320488
Sp 1.12563 1.68355 -0.411837 0.989844 0.132927 -0.0503981
Sp 1.24663 0.31737 0.54405 0.17212 0.950206 -0.259777
Sp -0.309245 0.659217 -0.411927 0.668054 -0.626403 0.40165
Sp 1.70044 1.04852 1.62736 -0.239893 0.895529 0.374805
Sp 1.08322 1.87358 1.13407 -0.280798 0.251375 0.926263
Sp 0.383294 -0.0211371 0.455576 -0.761985 -0.642801 0.0786449
Sp -0.277352 0.448594 -0.470455 0.0451266 0.910622 0.410769
Sp 0.98155 2.39268 -0.306229 -0.937129 0.130863 -0.323517
Sp 1.4168 -0.00726314 1.1643 0.541052 0.835992 -0.0915373
Sp 1.89785 -0.0436576 0.823972 -0.90783 0.16571 -0.385208
Sp 1.47353 1.46144 -0.101505 0.385317 0.656194 0.648799
Sp 0.313816 1.21021 2.01659 -0.947849 -0.11026 -0.299041
Sp 0.726799 -0.398742 1.75916 0.662238 0.452293 0.597387
Sp -0.0490852 -0.308392 2.47625 -0.381546 -0.639397 0.667529
Sp 1.75647 0.408707 2.37216 0.245916 -0.385736 -0.889232
Sp 1.98972 -0.026371 1.89993 0.0402211 0.621004 -0.782775
Sp -0.345445 1.99989 0.181532 0.578124 -0.748191 0.325551
Sp 0.493121 0.40808 0.66555 0.352327 0.463706 0.812922
d 5 5 5 0 0 1
d 5 5 5 0.5 0 0.866025
d 5 5 5 0.866025 0 0.5
d 5 5 5 1 0 4.64686e-14
d 5 5 5 0.866025 0 -0.5
d 5 5 5 0.5 0 -0.866025
d 5 5 5 0 0 1
d 5 5 5 0.433013 0.25 0.866025
d 5 5 5 0.75 0.433013 0.5
d 5 5 5 0.866025 0.5 4.64686e-14
d 5 5 5 0.75 0.433013 -0.5
d 5 5 5 0.433013 0.25 -0.866025
d 5 5 5 0 0 1
d 5 5 5 0.25 0.433013 0.866025
d 5 5 5 0.433013 0.75 0.5
d 5 5 5 0.5 0.866025 4.64686e-14
d 5 5 5 0.433013 0.75 -0.5
d 5 5 5 0.25 0.433013 -0.866025
d 5 5 5 0 0 1
d 5 5 5 2.32343e-14 0.5 0.866025
d 5 5 5 4.02429e-14 0.866025 0.5
d 5 5 5 4.64686e-14 1 4.64686e-14
d 5 5 5 4.02429e-14 0.866025 -0.5
d 5 5 5 2.32343e-14 0.5 -0.866025
d 5 5 5 -0 0 1
d 5 5 5 -0.25 0.433013 0.866025
d 5 5 5 -0.433013 0.75 0.5
d 5 5 5 -0.5 0.866025 4.64686e-14
d 5 5 5 -0.433013 0.75 -0.5
d 5 5 5 -0.25 0.433013 -0.866025
d 5 5 5 -0 0 1
d 5 5 5 -0.433013 0.25 0.866025
d 5 5 5 -0.75 0.433013 0.5
d 5 5 5 -0.866025 0.5 4.64686e-14
d 5 5 5 -0.75 0.433013 -0.5
d 5 5 5 -0.433013 0.25 -0.866025
d 5 5 5 -0 0 1
d 5 5 5 -0.5 4.64686e-14 0.866025
d 5 5 5 -0.866025 8.04859e-14 0.5
d 5 5 5 -1 9.29371e-14 4.64686e-14
d 5 5 5 -0.866025 8.04859e-14 -0.5
d 5 5 5 -0.5 4.64686e-14 -0.866025
d 5 5 5 -0 -0 1
d 5 5 5 -0.433013 -0.25 0.866025
d 5 5 5 -0.75 -0.433013 0.5
d 5 5 5 -0.866025 -0.5 4.64686e-14
d 5 5 5 -0.75 -0.433013 -0.5
d 5 5 5 -0.433013 -0.25 -0.866025
d 5 5 5 -0 -0 1
d 5 5 5 -0.25 -0.433013 0.866025
d 5 5 5 -0.433013 -0.75 0.5
d 5 5 5 -0.5 -0.866025 4.64686e-14
d 5 5 5 -0.433013 -0.75 -0.5
d 5 5 5 -0.25 -0.433013 -0.866025
d 5 5 5 -0 -0 1
d 5 5 5 -6.98139e-14 -0.5 0.866025
d 5 5 5 -1.20921e-13 -0.866025 0.5
d 5 5 5 -1.39628e-13 -1 4.64686e-14
d 5 5 5 -1.20921e-13 -0.866025 -0.5
d 5 5 5 -6.98139e-14 -0.5 -0.866025
d 5 5 5 0 -0 1
d 5 5 5 0.25 -0.433013 0.866025
d 5 5 5 0.433013 -0.75 0.5
d 5 5 5 0.5 -0.866025 4.64686e-14
d 5 5 5 0.433013 -0.75 -0.5
d 5 5 5 0.25 -0.433013 -0.866025
d 5 5 5 0 -0 1
d 5 5 5 0.433013 -0.25 0.866025
d 5 5 5 0.75 -0.433013 0.5
d 5 5 5 0.866025 -0.5 4.64686e-14
d 5 5 5 0.75 -0.433013 -0.5
d 5 5 5 0.433013 -0.25 -0.866025
