99
Liquid Crystals with Colloide in temperature=0.3, and potential=-2.6947e-22
Sp 2.08375 1.61393 1.00512 -0.962857 -0.212151 0.167028
Sp 1.75293 1.21894 -0.313714 0.323505 0.219351 -0.920451
Sp 0.395938 1.17101 1.80915 0.902297 0.421627 0.0899503
Sp 1.46488 0.746991 0.342394 0.268863 0.899257 -0.345036
Sp 0.355418 1.95453 1.14826 0.976229 -0.164569 0.141049
Sp 2.16568 0.762798 2.27485 0.263979 0.631951 -0.728665
Sp 0.428763 2.32298 0.582494 -0.020365 0.671048 0.741134
Sp 0.5254 0.553294 2.4598 0.187187 0.966399 0.176162
Sp 1.39952 -0.323784 2.10195 0.416785 0.866542 -0.274582
Sp 0.352217 1.97205 1.45877 0.965996 0.0950852 -0.24044
Sp 1.46116 0.121504 1.70527 0.212736 0.976345 0.0386559
Sp 2.08851 0.226903 0.170784 0.54875 -0.823841 -0.141984
Sp 0.350158 2.24935 2.49465 0.155135 0.890872 0.426942
Sp 1.12705 2.4163 2.25789 -0.212957 0.302514 0.929051
Sp -0.234275 2.20948 0.951337 -0.972074 -0.141881 0.18693
Sp -0.383284 1.25803 0.371605 -0.0819948 0.634877 0.76825
Sp 1.44079 0.877903 -0.319469 -0.823436 0.471417 -0.315782
Sp 1.40482 2.46457 0.474255 0.351251 0.271809 -0.895959
Sp 0.0772256 0.435251 1.23762 -0.494669 -0.416146 -0.762971
Sp 2.30926 1.18816 -0.284101 0.369528 0.885129 0.282836
Sp 1.37391 0.433243 2.27795 0.115077 -0.284762 -0.951666
Sp -0.304998 0.597808 -0.445646 -0.349322 0.597928 0.721427
Sp -0.0596432 2.46037 1.80639 -0.412141 -0.731515 0.543163
Sp 1.80509 1.24989 -0.315098 -0.327007 -0.70063 -0.63418
Sp 2.09783 2.06939 2.00029 -0.314235 0.221559 -0.92313
Sp 2.3523 0.344617 0.283732 0.303701 -0.929532 -0.209133
Sp 0.415803 0.981774 1.42714 0.300064 0.806095 0.510072
d 5 5 5 0 0 1
d 5 5 5 0.5 0 0.866025
d 5 5 5 0.866025 0 0.5
d 5 5 5 1 0 4.64686e-14
d 5 5 5 0.866025 0 -0.5
d 5 5 5 0.5 0 -0.866025
d 5 5 5 0 0 1
d 5 5 5 0.433013 0.25 0.866025
d 5 5 5 0.75 0.433013 0.5
d 5 5 5 0.866025 0.5 4.64686e-14
d 5 5 5 0.75 0.433013 -0.5
d 5 5 5 0.433013 0.25 -0.866025
d 5 5 5 0 0 1
d 5 5 5 0.25 0.433013 0.866025
d 5 5 5 0.433013 0.75 0.5
d 5 5 5 0.5 0.866025 4.64686e-14
d 5 5 5 0.433013 0.75 -0.5
d 5 5 5 0.25 0.433013 -0.866025
d 5 5 5 0 0 1
d 5 5 5 2.32343e-14 0.5 0.866025
d 5 5 5 4.02429e-14 0.866025 0.5
d 5 5 5 4.64686e-14 1 4.64686e-14
d 5 5 5 4.02429e-14 0.866025 -0.5
d 5 5 5 2.32343e-14 0.5 -0.866025
d 5 5 5 -0 0 1
d 5 5 5 -0.25 0.433013 0.866025
d 5 5 5 -0.433013 0.75 0.5
d 5 5 5 -0.5 0.866025 4.64686e-14
d 5 5 5 -0.433013 0.75 -0.5
d 5 5 5 -0.25 0.433013 -0.866025
d 5 5 5 -0 0 1
d 5 5 5 -0.433013 0.25 0.866025
d 5 5 5 -0.75 0.433013 0.5
d 5 5 5 -0.866025 0.5 4.64686e-14
d 5 5 5 -0.75 0.433013 -0.5
d 5 5 5 -0.433013 0.25 -0.866025
d 5 5 5 -0 0 1
d 5 5 5 -0.5 4.64686e-14 0.866025
d 5 5 5 -0.866025 8.04859e-14 0.5
d 5 5 5 -1 9.29371e-14 4.64686e-14
d 5 5 5 -0.866025 8.04859e-14 -0.5
d 5 5 5 -0.5 4.64686e-14 -0.866025
d 5 5 5 -0 -0 1
d 5 5 5 -0.433013 -0.25 0.866025
d 5 5 5 -0.75 -0.433013 0.5
d 5 5 5 -0.866025 -0.5 4.64686e-14
d 5 5 5 -0.75 -0.433013 -0.5
d 5 5 5 -0.433013 -0.25 -0.866025
d 5 5 5 -0 -0 1
d 5 5 5 -0.25 -0.433013 0.866025
d 5 5 5 -0.433013 -0.75 0.5
d 5 5 5 -0.5 -0.866025 4.64686e-14
d 5 5 5 -0.433013 -0.75 -0.5
d 5 5 5 -0.25 -0.433013 -0.866025
d 5 5 5 -0 -0 1
d 5 5 5 -6.98139e-14 -0.5 0.866025
d 5 5 5 -1.20921e-13 -0.866025 0.5
d 5 5 5 -1.39628e-13 -1 4.64686e-14
d 5 5 5 -1.20921e-13 -0.866025 -0.5
d 5 5 5 -6.98139e-14 -0.5 -0.866025
d 5 5 5 0 -0 1
d 5 5 5 0.25 -0.433013 0.866025
d 5 5 5 0.433013 -0.75 0.5
d 5 5 5 0.5 -0.866025 4.64686e-14
d 5 5 5 0.433013 -0.75 -0.5
d 5 5 5 0.25 -0.433013 -0.866025
d 5 5 5 0 -0 1
d 5 5 5 0.433013 -0.25 0.866025
d 5 5 5 0.75 -0.433013 0.5
d 5 5 5 0.866025 -0.5 4.64686e-14
d 5 5 5 0.75 -0.433013 -0.5
d 5 5 5 0.433013 -0.25 -0.866025
