99
Liquid Crystals with Colloide in temperature=0.8, and potential=-9.60867e-23
Sp 2.417 1.39757 1.74665 -0.895241 -0.275227 0.350421
Sp 1.11854 0.313818 2.00068 0.361404 -0.0574608 -0.930637
Sp 0.476869 2.3977 1.89766 0.775788 0.625585 0.0824407
Sp 0.191778 -0.0669226 0.337174 0.709095 0.662871 -0.240387
Sp 0.00103123 -0.0156567 -0.123969 0.409116 -0.880926 -0.237893
Sp 2.44785 0.158203 2.09046 0.358049 0.541679 -0.760516
Sp 0.219351 0.617229 0.172054 -0.109994 0.486391 0.86679
Sp -0.140772 0.44467 0.170836 0.0980623 0.830274 0.548661
Sp -0.000613237 2.1669 1.35461 0.22612 0.958449 0.17391
Sp -0.34561 1.4417 1.48753 0.952753 0.00341988 -0.303726
Sp 0.848325 0.442753 0.823532 0.068288 0.983601 -0.166931
Sp 1.98858 0.494654 0.592844 0.600213 -0.798087 -0.0529248
Sp -0.253703 1.26567 1.52983 0.0202893 0.938548 0.344551
Sp 1.407 1.96085 1.62117 -0.181754 0.246475 0.951954
Sp -0.0248585 1.63787 0.283729 -0.951616 -0.305665 0.0315705
Sp 2.3731 2.47248 -0.301199 -0.0719204 0.844476 0.530743
Sp 1.87787 0.285289 2.15595 -0.798239 0.38611 -0.462313
Sp 0.676255 2.46274 0.761664 0.495868 0.639552 -0.587443
Sp 2.4262 1.77254 0.0452401 -0.83321 -0.116263 -0.540597
Sp 0.805704 1.97457 -0.261864 0.235168 0.767014 0.59698
Sp 2.46594 0.43255 2.24574 -0.946323 -0.269632 -0.178243
Sp 1.97923 -0.0443806 2.34865 0.288236 0.51454 0.807569
Sp 1.68366 0.223085 1.52651 -0.717387 -0.52951 0.452741
Sp -0.109434 0.390398 0.858833 -0.313688 -0.522415 -0.792895
Sp -0.174297 1.29155 0.123617 -0.785426 0.0482363 -0.617073
Sp 0.717021 -0.0501544 1.13487 0.00477756 -0.976482 -0.215548
Sp 2.22874 0.329137 1.96487 0.0270451 0.717602 0.695928
d 5 5 5 0 0 1
d 5 5 5 0.5 0 0.866025
d 5 5 5 0.866025 0 0.5
d 5 5 5 1 0 4.64686e-14
d 5 5 5 0.866025 0 -0.5
d 5 5 5 0.5 0 -0.866025
d 5 5 5 0 0 1
d 5 5 5 0.433013 0.25 0.866025
d 5 5 5 0.75 0.433013 0.5
d 5 5 5 0.866025 0.5 4.64686e-14
d 5 5 5 0.75 0.433013 -0.5
d 5 5 5 0.433013 0.25 -0.866025
d 5 5 5 0 0 1
d 5 5 5 0.25 0.433013 0.866025
d 5 5 5 0.433013 0.75 0.5
d 5 5 5 0.5 0.866025 4.64686e-14
d 5 5 5 0.433013 0.75 -0.5
d 5 5 5 0.25 0.433013 -0.866025
d 5 5 5 0 0 1
d 5 5 5 2.32343e-14 0.5 0.866025
d 5 5 5 4.02429e-14 0.866025 0.5
d 5 5 5 4.64686e-14 1 4.64686e-14
d 5 5 5 4.02429e-14 0.866025 -0.5
d 5 5 5 2.32343e-14 0.5 -0.866025
d 5 5 5 -0 0 1
d 5 5 5 -0.25 0.433013 0.866025
d 5 5 5 -0.433013 0.75 0.5
d 5 5 5 -0.5 0.866025 4.64686e-14
d 5 5 5 -0.433013 0.75 -0.5
d 5 5 5 -0.25 0.433013 -0.866025
d 5 5 5 -0 0 1
d 5 5 5 -0.433013 0.25 0.866025
d 5 5 5 -0.75 0.433013 0.5
d 5 5 5 -0.866025 0.5 4.64686e-14
d 5 5 5 -0.75 0.433013 -0.5
d 5 5 5 -0.433013 0.25 -0.866025
d 5 5 5 -0 0 1
d 5 5 5 -0.5 4.64686e-14 0.866025
d 5 5 5 -0.866025 8.04859e-14 0.5
d 5 5 5 -1 9.29371e-14 4.64686e-14
d 5 5 5 -0.866025 8.04859e-14 -0.5
d 5 5 5 -0.5 4.64686e-14 -0.866025
d 5 5 5 -0 -0 1
d 5 5 5 -0.433013 -0.25 0.866025
d 5 5 5 -0.75 -0.433013 0.5
d 5 5 5 -0.866025 -0.5 4.64686e-14
d 5 5 5 -0.75 -0.433013 -0.5
d 5 5 5 -0.433013 -0.25 -0.866025
d 5 5 5 -0 -0 1
d 5 5 5 -0.25 -0.433013 0.866025
d 5 5 5 -0.433013 -0.75 0.5
d 5 5 5 -0.5 -0.866025 4.64686e-14
d 5 5 5 -0.433013 -0.75 -0.5
d 5 5 5 -0.25 -0.433013 -0.866025
d 5 5 5 -0 -0 1
d 5 5 5 -6.98139e-14 -0.5 0.866025
d 5 5 5 -1.20921e-13 -0.866025 0.5
d 5 5 5 -1.39628e-13 -1 4.64686e-14
d 5 5 5 -1.20921e-13 -0.866025 -0.5
d 5 5 5 -6.98139e-14 -0.5 -0.866025
d 5 5 5 0 -0 1
d 5 5 5 0.25 -0.433013 0.866025
d 5 5 5 0.433013 -0.75 0.5
d 5 5 5 0.5 -0.866025 4.64686e-14
d 5 5 5 0.433013 -0.75 -0.5
d 5 5 5 0.25 -0.433013 -0.866025
d 5 5 5 0 -0 1
d 5 5 5 0.433013 -0.25 0.866025
d 5 5 5 0.75 -0.433013 0.5
d 5 5 5 0.866025 -0.5 4.64686e-14
d 5 5 5 0.75 -0.433013 -0.5
d 5 5 5 0.433013 -0.25 -0.866025
