99
Liquid Crystals with Colloide in temperature=0.5, and potential=-6.26925e-23
Sp 2.20075 1.57246 1.37614 -0.939244 -0.229539 0.255209
Sp 1.03121 0.352462 0.877821 0.268061 0.0145936 -0.963291
Sp 0.0856959 1.9501 2.2099 0.780467 0.597056 0.185461
Sp 1.88542 0.300649 0.379716 0.438756 0.842528 -0.312473
Sp -0.431362 -0.428751 0.427078 0.737402 -0.674866 -0.0281962
Sp 2.19643 -0.396356 2.43005 0.342023 0.467138 -0.815354
Sp 2.42141 0.723101 -0.279772 -0.327062 0.511942 0.794321
Sp 2.46706 -0.0614781 -0.473795 -0.0753731 0.972361 0.220983
Sp 0.211058 1.09925 -0.00152893 0.349859 0.929062 -0.120181
Sp 0.167768 2.49076 0.941918 0.900931 0.232227 -0.366599
Sp 1.11413 0.0337438 1.40956 0.127431 0.991227 -0.0350625
Sp 1.95936 0.344563 1.85919 0.537357 -0.791147 0.292118
Sp -0.252816 0.773746 2.40327 0.0268711 0.804212 0.593735
Sp 1.30779 2.38676 1.7164 -0.197627 0.339049 0.919777
Sp 0.0601126 2.25213 0.765345 -0.97629 -0.137347 0.167315
Sp 0.995984 0.893425 -0.246741 -0.475701 0.585692 0.656257
Sp 2.04697 0.51307 2.45727 -0.788996 0.467871 -0.398225
Sp 0.73405 2.1555 -0.0822148 0.466729 0.497396 -0.731274
Sp 0.216305 2.17313 2.27553 -0.652086 -0.0145304 -0.758006
Sp 1.86678 1.51048 -0.199437 0.478314 0.628532 0.613321
Sp -0.342388 -0.056154 1.23737 -0.827299 -0.349722 -0.439626
Sp 1.86675 0.658783 -0.275686 0.201612 0.615905 0.761586
Sp -0.16341 2.17975 2.25475 -0.389095 -0.717128 0.578215
Sp 1.83008 -0.488477 -0.229152 -0.440415 -0.504535 -0.742616
Sp 1.72125 1.98512 -0.407015 -0.439913 0.22657 -0.86899
Sp 1.23038 1.88269 0.252264 0.105536 -0.935969 -0.335893
Sp 0.384035 0.607677 1.47522 0.313045 0.768778 0.557658
d 5 5 5 0 0 1
d 5 5 5 0.5 0 0.866025
d 5 5 5 0.866025 0 0.5
d 5 5 5 1 0 4.64686e-14
d 5 5 5 0.866025 0 -0.5
d 5 5 5 0.5 0 -0.866025
d 5 5 5 0 0 1
d 5 5 5 0.433013 0.25 0.866025
d 5 5 5 0.75 0.433013 0.5
d 5 5 5 0.866025 0.5 4.64686e-14
d 5 5 5 0.75 0.433013 -0.5
d 5 5 5 0.433013 0.25 -0.866025
d 5 5 5 0 0 1
d 5 5 5 0.25 0.433013 0.866025
d 5 5 5 0.433013 0.75 0.5
d 5 5 5 0.5 0.866025 4.64686e-14
d 5 5 5 0.433013 0.75 -0.5
d 5 5 5 0.25 0.433013 -0.866025
d 5 5 5 0 0 1
d 5 5 5 2.32343e-14 0.5 0.866025
d 5 5 5 4.02429e-14 0.866025 0.5
d 5 5 5 4.64686e-14 1 4.64686e-14
d 5 5 5 4.02429e-14 0.866025 -0.5
d 5 5 5 2.32343e-14 0.5 -0.866025
d 5 5 5 -0 0 1
d 5 5 5 -0.25 0.433013 0.866025
d 5 5 5 -0.433013 0.75 0.5
d 5 5 5 -0.5 0.866025 4.64686e-14
d 5 5 5 -0.433013 0.75 -0.5
d 5 5 5 -0.25 0.433013 -0.866025
d 5 5 5 -0 0 1
d 5 5 5 -0.433013 0.25 0.866025
d 5 5 5 -0.75 0.433013 0.5
d 5 5 5 -0.866025 0.5 4.64686e-14
d 5 5 5 -0.75 0.433013 -0.5
d 5 5 5 -0.433013 0.25 -0.866025
d 5 5 5 -0 0 1
d 5 5 5 -0.5 4.64686e-14 0.866025
d 5 5 5 -0.866025 8.04859e-14 0.5
d 5 5 5 -1 9.29371e-14 4.64686e-14
d 5 5 5 -0.866025 8.04859e-14 -0.5
d 5 5 5 -0.5 4.64686e-14 -0.866025
d 5 5 5 -0 -0 1
d 5 5 5 -0.433013 -0.25 0.866025
d 5 5 5 -0.75 -0.433013 0.5
d 5 5 5 -0.866025 -0.5 4.64686e-14
d 5 5 5 -0.75 -0.433013 -0.5
d 5 5 5 -0.433013 -0.25 -0.866025
d 5 5 5 -0 -0 1
d 5 5 5 -0.25 -0.433013 0.866025
d 5 5 5 -0.433013 -0.75 0.5
d 5 5 5 -0.5 -0.866025 4.64686e-14
d 5 5 5 -0.433013 -0.75 -0.5
d 5 5 5 -0.25 -0.433013 -0.866025
d 5 5 5 -0 -0 1
d 5 5 5 -6.98139e-14 -0.5 0.866025
d 5 5 5 -1.20921e-13 -0.866025 0.5
d 5 5 5 -1.39628e-13 -1 4.64686e-14
d 5 5 5 -1.20921e-13 -0.866025 -0.5
d 5 5 5 -6.98139e-14 -0.5 -0.866025
d 5 5 5 0 -0 1
d 5 5 5 0.25 -0.433013 0.866025
d 5 5 5 0.433013 -0.75 0.5
d 5 5 5 0.5 -0.866025 4.64686e-14
d 5 5 5 0.433013 -0.75 -0.5
d 5 5 5 0.25 -0.433013 -0.866025
d 5 5 5 0 -0 1
d 5 5 5 0.433013 -0.25 0.866025
d 5 5 5 0.75 -0.433013 0.5
d 5 5 5 0.866025 -0.5 4.64686e-14
d 5 5 5 0.75 -0.433013 -0.5
d 5 5 5 0.433013 -0.25 -0.866025
