99
Liquid Crystals with Colloide in temperature=0.2, and potential=-3.78588e-22
Sp 2.24021 1.2644 1.08776 -0.933548 -0.30373 0.190359
Sp 0.205811 0.711134 2.47118 0.18512 0.0812463 -0.979352
Sp 0.499653 1.05748 1.92538 0.914427 0.387399 0.117239
Sp 2.36369 2.34758 0.173395 0.557846 0.687625 -0.464735
Sp 0.462635 2.36806 0.951336 0.99397 -0.0611538 0.0910147
Sp 2.20147 0.970711 2.25781 0.262006 0.658153 -0.705824
Sp 1.5183 2.48367 0.261683 0.2441 0.692629 0.678735
Sp 0.634954 0.437723 2.18662 0.221719 0.968719 0.11146
Sp 1.39952 -0.323784 2.10195 0.416785 0.866542 -0.274582
Sp 0.352217 1.97205 1.45877 0.965996 0.0950852 -0.24044
Sp 1.46116 0.121504 1.70527 0.212736 0.976345 0.0386559
Sp 1.63944 2.46844 0.256737 0.38552 -0.914743 -0.120908
Sp 1.88468 0.0631234 -0.366658 -0.14703 0.632584 0.760407
Sp 1.49798 2.13634 2.45417 -0.118439 0.22965 0.96604
Sp -0.234275 2.20948 0.951337 -0.972074 -0.141881 0.18693
Sp 0.480318 1.40171 0.355821 0.111249 0.156178 0.981444
Sp 2.07579 0.600108 0.625788 -0.857803 0.4941 -0.141565
Sp 1.40482 2.46457 0.474255 0.351251 0.271809 -0.895959
Sp -0.28379 1.79194 0.682805 -0.541665 -0.0485765 -0.83919
Sp 2.10695 1.59156 0.16133 0.287952 0.889121 0.355735
Sp 0.463754 0.255099 1.69717 -0.124927 -0.281803 -0.951305
Sp -0.203226 0.56476 -0.481658 -0.37882 0.612099 0.69414
Sp -0.0602989 2.30827 1.20745 -0.43346 -0.814669 0.385262
Sp 0.194505 -0.136906 0.0214688 -0.729052 -0.312806 -0.608798
Sp 2.28121 2.10266 1.82321 -0.262517 0.224558 -0.938434
Sp 0.119137 0.895059 0.351552 0.543634 -0.818986 -0.183638
Sp 0.415803 0.981774 1.42714 0.300064 0.806095 0.510072
d 5 5 5 0 0 1
d 5 5 5 0.5 0 0.866025
d 5 5 5 0.866025 0 0.5
d 5 5 5 1 0 4.64686e-14
d 5 5 5 0.866025 0 -0.5
d 5 5 5 0.5 0 -0.866025
d 5 5 5 0 0 1
d 5 5 5 0.433013 0.25 0.866025
d 5 5 5 0.75 0.433013 0.5
d 5 5 5 0.866025 0.5 4.64686e-14
d 5 5 5 0.75 0.433013 -0.5
d 5 5 5 0.433013 0.25 -0.866025
d 5 5 5 0 0 1
d 5 5 5 0.25 0.433013 0.866025
d 5 5 5 0.433013 0.75 0.5
d 5 5 5 0.5 0.866025 4.64686e-14
d 5 5 5 0.433013 0.75 -0.5
d 5 5 5 0.25 0.433013 -0.866025
d 5 5 5 0 0 1
d 5 5 5 2.32343e-14 0.5 0.866025
d 5 5 5 4.02429e-14 0.866025 0.5
d 5 5 5 4.64686e-14 1 4.64686e-14
d 5 5 5 4.02429e-14 0.866025 -0.5
d 5 5 5 2.32343e-14 0.5 -0.866025
d 5 5 5 -0 0 1
d 5 5 5 -0.25 0.433013 0.866025
d 5 5 5 -0.433013 0.75 0.5
d 5 5 5 -0.5 0.866025 4.64686e-14
d 5 5 5 -0.433013 0.75 -0.5
d 5 5 5 -0.25 0.433013 -0.866025
d 5 5 5 -0 0 1
d 5 5 5 -0.433013 0.25 0.866025
d 5 5 5 -0.75 0.433013 0.5
d 5 5 5 -0.866025 0.5 4.64686e-14
d 5 5 5 -0.75 0.433013 -0.5
d 5 5 5 -0.433013 0.25 -0.866025
d 5 5 5 -0 0 1
d 5 5 5 -0.5 4.64686e-14 0.866025
d 5 5 5 -0.866025 8.04859e-14 0.5
d 5 5 5 -1 9.29371e-14 4.64686e-14
d 5 5 5 -0.866025 8.04859e-14 -0.5
d 5 5 5 -0.5 4.64686e-14 -0.866025
d 5 5 5 -0 -0 1
d 5 5 5 -0.433013 -0.25 0.866025
d 5 5 5 -0.75 -0.433013 0.5
d 5 5 5 -0.866025 -0.5 4.64686e-14
d 5 5 5 -0.75 -0.433013 -0.5
d 5 5 5 -0.433013 -0.25 -0.866025
d 5 5 5 -0 -0 1
d 5 5 5 -0.25 -0.433013 0.866025
d 5 5 5 -0.433013 -0.75 0.5
d 5 5 5 -0.5 -0.866025 4.64686e-14
d 5 5 5 -0.433013 -0.75 -0.5
d 5 5 5 -0.25 -0.433013 -0.866025
d 5 5 5 -0 -0 1
d 5 5 5 -6.98139e-14 -0.5 0.866025
d 5 5 5 -1.20921e-13 -0.866025 0.5
d 5 5 5 -1.39628e-13 -1 4.64686e-14
d 5 5 5 -1.20921e-13 -0.866025 -0.5
d 5 5 5 -6.98139e-14 -0.5 -0.866025
d 5 5 5 0 -0 1
d 5 5 5 0.25 -0.433013 0.866025
d 5 5 5 0.433013 -0.75 0.5
d 5 5 5 0.5 -0.866025 4.64686e-14
d 5 5 5 0.433013 -0.75 -0.5
d 5 5 5 0.25 -0.433013 -0.866025
d 5 5 5 0 -0 1
d 5 5 5 0.433013 -0.25 0.866025
d 5 5 5 0.75 -0.433013 0.5
d 5 5 5 0.866025 -0.5 4.64686e-14
d 5 5 5 0.75 -0.433013 -0.5
d 5 5 5 0.433013 -0.25 -0.866025
