99
Liquid Crystals with Colloide in temperature=0.9, and potential=-5.24526e-23
Sp 2.24085 1.1962 1.67585 -0.895989 -0.312254 0.315756
Sp 1.37291 0.480697 1.9048 0.408679 -0.0131465 -0.912584
Sp 0.566702 -0.28257 1.94683 0.744234 0.661963 0.088994
Sp 0.31253 0.966284 1.07554 0.616124 0.787596 -0.00917632
Sp -0.325597 -0.0722777 -0.0289668 0.337715 -0.915161 -0.220067
Sp -0.359386 0.537934 2.46491 0.400007 0.632383 -0.66339
Sp 0.579653 1.40259 0.203691 -0.00944958 0.627114 0.77887
Sp -0.137828 -0.0858952 0.331721 0.107446 0.763615 0.636669
Sp -0.164546 2.22436 0.756381 0.184654 0.982542 0.0226816
Sp -0.110802 1.37974 1.6795 0.969491 -0.0115793 -0.244854
Sp 0.400207 -0.0170087 0.81195 -0.0389507 0.980864 -0.190757
Sp 2.2292 0.171341 0.984707 0.603606 -0.796417 0.037145
Sp -0.456108 1.34056 1.66475 -0.0312678 0.929431 0.36767
Sp 1.08322 1.87358 1.13407 -0.280798 0.251375 0.926263
Sp -0.377324 1.2536 0.717531 -0.924476 -0.357556 0.132281
Sp 0.274117 -0.15083 -0.261859 0.154219 0.857397 0.491007
Sp 1.63024 -0.131093 1.33466 -0.758817 0.23684 -0.606715
Sp 0.676255 2.46274 0.761664 0.495868 0.639552 -0.587443
Sp 2.17881 1.42778 -0.482287 -0.779772 -0.186367 -0.597681
Sp 0.200671 1.88013 -0.421864 0.0955378 0.795442 0.598452
Sp 2.46594 0.43255 2.24574 -0.946323 -0.269632 -0.178243
Sp 0.0326113 0.199144 1.728 0.525326 0.561223 0.639579
Sp 1.74342 0.400015 1.75069 -0.706838 -0.489 0.511135
Sp -0.292728 0.943538 0.683425 -0.363002 -0.390535 -0.845998
Sp -0.0678889 1.29585 0.513089 -0.821857 0.0544156 -0.567089
Sp 0.417177 0.604962 1.55668 -0.073079 -0.987047 -0.14282
Sp 1.55022 0.245738 2.31938 -0.138888 0.655453 0.742355
d 5 5 5 0 0 1
d 5 5 5 0.5 0 0.866025
d 5 5 5 0.866025 0 0.5
d 5 5 5 1 0 4.64686e-14
d 5 5 5 0.866025 0 -0.5
d 5 5 5 0.5 0 -0.866025
d 5 5 5 0 0 1
d 5 5 5 0.433013 0.25 0.866025
d 5 5 5 0.75 0.433013 0.5
d 5 5 5 0.866025 0.5 4.64686e-14
d 5 5 5 0.75 0.433013 -0.5
d 5 5 5 0.433013 0.25 -0.866025
d 5 5 5 0 0 1
d 5 5 5 0.25 0.433013 0.866025
d 5 5 5 0.433013 0.75 0.5
d 5 5 5 0.5 0.866025 4.64686e-14
d 5 5 5 0.433013 0.75 -0.5
d 5 5 5 0.25 0.433013 -0.866025
d 5 5 5 0 0 1
d 5 5 5 2.32343e-14 0.5 0.866025
d 5 5 5 4.02429e-14 0.866025 0.5
d 5 5 5 4.64686e-14 1 4.64686e-14
d 5 5 5 4.02429e-14 0.866025 -0.5
d 5 5 5 2.32343e-14 0.5 -0.866025
d 5 5 5 -0 0 1
d 5 5 5 -0.25 0.433013 0.866025
d 5 5 5 -0.433013 0.75 0.5
d 5 5 5 -0.5 0.866025 4.64686e-14
d 5 5 5 -0.433013 0.75 -0.5
d 5 5 5 -0.25 0.433013 -0.866025
d 5 5 5 -0 0 1
d 5 5 5 -0.433013 0.25 0.866025
d 5 5 5 -0.75 0.433013 0.5
d 5 5 5 -0.866025 0.5 4.64686e-14
d 5 5 5 -0.75 0.433013 -0.5
d 5 5 5 -0.433013 0.25 -0.866025
d 5 5 5 -0 0 1
d 5 5 5 -0.5 4.64686e-14 0.866025
d 5 5 5 -0.866025 8.04859e-14 0.5
d 5 5 5 -1 9.29371e-14 4.64686e-14
d 5 5 5 -0.866025 8.04859e-14 -0.5
d 5 5 5 -0.5 4.64686e-14 -0.866025
d 5 5 5 -0 -0 1
d 5 5 5 -0.433013 -0.25 0.866025
d 5 5 5 -0.75 -0.433013 0.5
d 5 5 5 -0.866025 -0.5 4.64686e-14
d 5 5 5 -0.75 -0.433013 -0.5
d 5 5 5 -0.433013 -0.25 -0.866025
d 5 5 5 -0 -0 1
d 5 5 5 -0.25 -0.433013 0.866025
d 5 5 5 -0.433013 -0.75 0.5
d 5 5 5 -0.5 -0.866025 4.64686e-14
d 5 5 5 -0.433013 -0.75 -0.5
d 5 5 5 -0.25 -0.433013 -0.866025
d 5 5 5 -0 -0 1
d 5 5 5 -6.98139e-14 -0.5 0.866025
d 5 5 5 -1.20921e-13 -0.866025 0.5
d 5 5 5 -1.39628e-13 -1 4.64686e-14
d 5 5 5 -1.20921e-13 -0.866025 -0.5
d 5 5 5 -6.98139e-14 -0.5 -0.866025
d 5 5 5 0 -0 1
d 5 5 5 0.25 -0.433013 0.866025
d 5 5 5 0.433013 -0.75 0.5
d 5 5 5 0.5 -0.866025 4.64686e-14
d 5 5 5 0.433013 -0.75 -0.5
d 5 5 5 0.25 -0.433013 -0.866025
d 5 5 5 0 -0 1
d 5 5 5 0.433013 -0.25 0.866025
d 5 5 5 0.75 -0.433013 0.5
d 5 5 5 0.866025 -0.5 4.64686e-14
d 5 5 5 0.75 -0.433013 -0.5
d 5 5 5 0.433013 -0.25 -0.866025
