99
Liquid Crystals with Colloide in temperature=0.5, and potential=-8.38833e-23
Sp 2.21606 1.49124 1.63117 -0.91778 -0.245019 0.312481
Sp 1.14974 0.0365833 1.12 0.308632 -0.0714557 -0.948494
Sp 0.683115 -0.42671 2.00143 0.773372 0.625805 0.101312
Sp 2.42764 0.225807 0.116484 0.532328 0.767259 -0.357687
Sp 2.14538 0.0850818 -0.136523 0.736171 -0.650176 -0.187943
Sp 2.04706 2.00562 2.33384 0.322616 0.345274 -0.881308
Sp 0.517045 0.440262 0.455188 -0.0523181 0.412645 0.909388
Sp 0.350405 2.41127 -0.491892 0.167249 0.956733 0.238095
Sp 0.378982 0.913329 -0.0752112 0.399342 0.905137 -0.145783
Sp -0.172568 1.70181 1.28107 0.939991 0.0676858 -0.334417
Sp 0.708437 -0.0478687 0.844099 0.0261068 0.983193 -0.180694
Sp 2.05737 -0.410444 1.30589 0.489702 -0.863739 0.118939
Sp 0.0812927 2.32811 2.01993 0.0858239 0.929192 0.359494
Sp 1.44601 2.26323 1.82965 -0.160992 0.30448 0.938815
Sp -0.20355 1.07197 1.24238 -0.882485 -0.398031 0.250584
Sp 1.66903 1.88037 -0.0610777 -0.259099 0.73795 0.623135
Sp 1.83789 0.518326 2.31143 -0.796437 0.442602 -0.412057
Sp 0.758499 1.97427 0.472191 0.535015 0.508522 -0.674659
Sp 0.0273919 2.10497 2.10409 -0.654052 -0.0250508 -0.756035
Sp 0.630312 -0.383238 -0.138485 0.146753 0.814857 0.560777
Sp 2.43488 0.0582596 -0.471887 -0.926016 -0.349394 -0.142896
Sp 1.28121 0.250062 0.342639 0.0476745 0.480065 0.875937
Sp 2.19158 -0.0664692 1.70885 -0.602721 -0.618523 0.50414
Sp -0.161452 -0.259167 0.647408 -0.297503 -0.591425 -0.749472
Sp 0.80437 1.33285 -0.19819 -0.626529 0.0594913 -0.777124
Sp 1.02923 2.4302 0.431352 0.0764171 -0.938084 -0.337875
Sp -0.486415 1.14904 1.34818 0.0918999 0.862436 0.497754
d 5 5 5 0 0 1
d 5 5 5 0.5 0 0.866025
d 5 5 5 0.866025 0 0.5
d 5 5 5 1 0 4.64686e-14
d 5 5 5 0.866025 0 -0.5
d 5 5 5 0.5 0 -0.866025
d 5 5 5 0 0 1
d 5 5 5 0.433013 0.25 0.866025
d 5 5 5 0.75 0.433013 0.5
d 5 5 5 0.866025 0.5 4.64686e-14
d 5 5 5 0.75 0.433013 -0.5
d 5 5 5 0.433013 0.25 -0.866025
d 5 5 5 0 0 1
d 5 5 5 0.25 0.433013 0.866025
d 5 5 5 0.433013 0.75 0.5
d 5 5 5 0.5 0.866025 4.64686e-14
d 5 5 5 0.433013 0.75 -0.5
d 5 5 5 0.25 0.433013 -0.866025
d 5 5 5 0 0 1
d 5 5 5 2.32343e-14 0.5 0.866025
d 5 5 5 4.02429e-14 0.866025 0.5
d 5 5 5 4.64686e-14 1 4.64686e-14
d 5 5 5 4.02429e-14 0.866025 -0.5
d 5 5 5 2.32343e-14 0.5 -0.866025
d 5 5 5 -0 0 1
d 5 5 5 -0.25 0.433013 0.866025
d 5 5 5 -0.433013 0.75 0.5
d 5 5 5 -0.5 0.866025 4.64686e-14
d 5 5 5 -0.433013 0.75 -0.5
d 5 5 5 -0.25 0.433013 -0.866025
d 5 5 5 -0 0 1
d 5 5 5 -0.433013 0.25 0.866025
d 5 5 5 -0.75 0.433013 0.5
d 5 5 5 -0.866025 0.5 4.64686e-14
d 5 5 5 -0.75 0.433013 -0.5
d 5 5 5 -0.433013 0.25 -0.866025
d 5 5 5 -0 0 1
d 5 5 5 -0.5 4.64686e-14 0.866025
d 5 5 5 -0.866025 8.04859e-14 0.5
d 5 5 5 -1 9.29371e-14 4.64686e-14
d 5 5 5 -0.866025 8.04859e-14 -0.5
d 5 5 5 -0.5 4.64686e-14 -0.866025
d 5 5 5 -0 -0 1
d 5 5 5 -0.433013 -0.25 0.866025
d 5 5 5 -0.75 -0.433013 0.5
d 5 5 5 -0.866025 -0.5 4.64686e-14
d 5 5 5 -0.75 -0.433013 -0.5
d 5 5 5 -0.433013 -0.25 -0.866025
d 5 5 5 -0 -0 1
d 5 5 5 -0.25 -0.433013 0.866025
d 5 5 5 -0.433013 -0.75 0.5
d 5 5 5 -0.5 -0.866025 4.64686e-14
d 5 5 5 -0.433013 -0.75 -0.5
d 5 5 5 -0.25 -0.433013 -0.866025
d 5 5 5 -0 -0 1
d 5 5 5 -6.98139e-14 -0.5 0.866025
d 5 5 5 -1.20921e-13 -0.866025 0.5
d 5 5 5 -1.39628e-13 -1 4.64686e-14
d 5 5 5 -1.20921e-13 -0.866025 -0.5
d 5 5 5 -6.98139e-14 -0.5 -0.866025
d 5 5 5 0 -0 1
d 5 5 5 0.25 -0.433013 0.866025
d 5 5 5 0.433013 -0.75 0.5
d 5 5 5 0.5 -0.866025 4.64686e-14
d 5 5 5 0.433013 -0.75 -0.5
d 5 5 5 0.25 -0.433013 -0.866025
d 5 5 5 0 -0 1
d 5 5 5 0.433013 -0.25 0.866025
d 5 5 5 0.75 -0.433013 0.5
d 5 5 5 0.866025 -0.5 4.64686e-14
d 5 5 5 0.75 -0.433013 -0.5
d 5 5 5 0.433013 -0.25 -0.866025
