99
Liquid Crystals with Colloide in temperature=0.06, and potential=-5.30346e-22
Sp 2.11513 1.5127 1.10481 -0.952014 -0.238271 0.192082
Sp 0.617976 1.35379 0.161167 0.32415 0.261072 -0.909268
Sp 0.499653 1.05748 1.92538 0.914427 0.387399 0.117239
Sp 2.36369 2.34758 0.173395 0.557846 0.687625 -0.464735
Sp 0.462635 2.36806 0.951336 0.99397 -0.0611538 0.0910147
Sp 2.46476 0.97329 2.46307 0.333009 0.669376 -0.664109
Sp 1.5183 2.48367 0.261683 0.2441 0.692629 0.678735
Sp 0.634954 0.437723 2.18662 0.221719 0.968719 0.11146
Sp 1.39952 -0.323784 2.10195 0.416785 0.866542 -0.274582
Sp 0.352217 1.97205 1.45877 0.965996 0.0950852 -0.24044
Sp 1.46116 0.121504 1.70527 0.212736 0.976345 0.0386559
Sp 1.90012 1.05965 -0.14166 0.346716 -0.924053 -0.160979
Sp 1.90123 0.466017 1.77775 -0.164414 0.774427 0.610927
Sp 1.21756 2.08865 2.49763 -0.18506 0.213883 0.95917
Sp -0.234275 2.20948 0.951337 -0.972074 -0.141881 0.18693
Sp 0.923457 -0.49796 0.453872 0.407877 0.360675 0.838779
Sp 2.19751 0.507533 0.628261 -0.859706 0.489348 -0.146437
Sp 1.40482 2.46457 0.474255 0.351251 0.271809 -0.895959
Sp -0.130322 2.01008 1.22493 -0.587059 0.00756626 -0.809509
Sp 2.10695 1.59156 0.16133 0.287952 0.889121 0.355735
Sp 0.592631 1.32477 0.477295 -0.172825 -0.141499 -0.974736
Sp 1.52014 0.132801 2.13919 0.0733939 0.555674 0.828154
Sp 0.321027 1.1172 1.0418 -0.532157 -0.612885 0.584107
Sp 1.36806 0.142391 1.98148 -0.427352 0.382317 -0.81927
Sp 2.13335 1.99151 1.99656 -0.31134 0.204067 -0.928129
Sp 1.08203 2.22747 0.437225 0.562072 -0.822958 -0.0825555
Sp 0.415803 0.981774 1.42714 0.300064 0.806095 0.510072
d 5 5 5 0 0 1
d 5 5 5 0.5 0 0.866025
d 5 5 5 0.866025 0 0.5
d 5 5 5 1 0 4.64686e-14
d 5 5 5 0.866025 0 -0.5
d 5 5 5 0.5 0 -0.866025
d 5 5 5 0 0 1
d 5 5 5 0.433013 0.25 0.866025
d 5 5 5 0.75 0.433013 0.5
d 5 5 5 0.866025 0.5 4.64686e-14
d 5 5 5 0.75 0.433013 -0.5
d 5 5 5 0.433013 0.25 -0.866025
d 5 5 5 0 0 1
d 5 5 5 0.25 0.433013 0.866025
d 5 5 5 0.433013 0.75 0.5
d 5 5 5 0.5 0.866025 4.64686e-14
d 5 5 5 0.433013 0.75 -0.5
d 5 5 5 0.25 0.433013 -0.866025
d 5 5 5 0 0 1
d 5 5 5 2.32343e-14 0.5 0.866025
d 5 5 5 4.02429e-14 0.866025 0.5
d 5 5 5 4.64686e-14 1 4.64686e-14
d 5 5 5 4.02429e-14 0.866025 -0.5
d 5 5 5 2.32343e-14 0.5 -0.866025
d 5 5 5 -0 0 1
d 5 5 5 -0.25 0.433013 0.866025
d 5 5 5 -0.433013 0.75 0.5
d 5 5 5 -0.5 0.866025 4.64686e-14
d 5 5 5 -0.433013 0.75 -0.5
d 5 5 5 -0.25 0.433013 -0.866025
d 5 5 5 -0 0 1
d 5 5 5 -0.433013 0.25 0.866025
d 5 5 5 -0.75 0.433013 0.5
d 5 5 5 -0.866025 0.5 4.64686e-14
d 5 5 5 -0.75 0.433013 -0.5
d 5 5 5 -0.433013 0.25 -0.866025
d 5 5 5 -0 0 1
d 5 5 5 -0.5 4.64686e-14 0.866025
d 5 5 5 -0.866025 8.04859e-14 0.5
d 5 5 5 -1 9.29371e-14 4.64686e-14
d 5 5 5 -0.866025 8.04859e-14 -0.5
d 5 5 5 -0.5 4.64686e-14 -0.866025
d 5 5 5 -0 -0 1
d 5 5 5 -0.433013 -0.25 0.866025
d 5 5 5 -0.75 -0.433013 0.5
d 5 5 5 -0.866025 -0.5 4.64686e-14
d 5 5 5 -0.75 -0.433013 -0.5
d 5 5 5 -0.433013 -0.25 -0.866025
d 5 5 5 -0 -0 1
d 5 5 5 -0.25 -0.433013 0.866025
d 5 5 5 -0.433013 -0.75 0.5
d 5 5 5 -0.5 -0.866025 4.64686e-14
d 5 5 5 -0.433013 -0.75 -0.5
d 5 5 5 -0.25 -0.433013 -0.866025
d 5 5 5 -0 -0 1
d 5 5 5 -6.98139e-14 -0.5 0.866025
d 5 5 5 -1.20921e-13 -0.866025 0.5
d 5 5 5 -1.39628e-13 -1 4.64686e-14
d 5 5 5 -1.20921e-13 -0.866025 -0.5
d 5 5 5 -6.98139e-14 -0.5 -0.866025
d 5 5 5 0 -0 1
d 5 5 5 0.25 -0.433013 0.866025
d 5 5 5 0.433013 -0.75 0.5
d 5 5 5 0.5 -0.866025 4.64686e-14
d 5 5 5 0.433013 -0.75 -0.5
d 5 5 5 0.25 -0.433013 -0.866025
d 5 5 5 0 -0 1
d 5 5 5 0.433013 -0.25 0.866025
d 5 5 5 0.75 -0.433013 0.5
d 5 5 5 0.866025 -0.5 4.64686e-14
d 5 5 5 0.75 -0.433013 -0.5
d 5 5 5 0.433013 -0.25 -0.866025
