99
Liquid Crystals with Colloide in temperature=0.2, and potential=-3.02676e-22
Sp 2.06778 1.31706 1.04584 -0.944231 -0.280014 0.173265
Sp 0.864607 -0.263347 1.99328 0.301946 -0.142106 -0.942674
Sp 0.395938 1.17101 1.80915 0.902297 0.421627 0.0899503
Sp 1.77546 2.40226 -0.25834 0.413966 0.705013 -0.575838
Sp 0.369123 2.10849 0.956007 0.987454 -0.127084 0.0937265
Sp 2.20195 0.956482 2.28401 0.263943 0.659156 -0.704164
Sp 1.5183 2.48367 0.261683 0.2441 0.692629 0.678735
Sp 0.5254 0.553294 2.4598 0.187187 0.966399 0.176162
Sp 1.39952 -0.323784 2.10195 0.416785 0.866542 -0.274582
Sp 0.352217 1.97205 1.45877 0.965996 0.0950852 -0.24044
Sp 1.46116 0.121504 1.70527 0.212736 0.976345 0.0386559
Sp 1.63944 2.46844 0.256737 0.38552 -0.914743 -0.120908
Sp 0.536588 2.43443 -0.426885 0.290678 0.50845 0.810546
Sp 1.12705 2.4163 2.25789 -0.212957 0.302514 0.929051
Sp -0.234275 2.20948 0.951337 -0.972074 -0.141881 0.18693
Sp 0.00469422 1.90516 -0.463668 -0.00685483 0.306875 0.951725
Sp 2.07579 0.600108 0.625788 -0.857803 0.4941 -0.141565
Sp 1.40482 2.46457 0.474255 0.351251 0.271809 -0.895959
Sp -0.383216 1.39162 1.50449 -0.640899 -0.150586 -0.75271
Sp 2.10695 1.59156 0.16133 0.287952 0.889121 0.355735
Sp 0.952035 0.12513 1.76113 0.00730812 -0.313065 -0.949704
Sp 2.41648 0.357186 2.10682 -0.494302 0.592277 0.636296
Sp -0.499201 2.15724 1.31916 -0.500593 -0.779176 0.377217
Sp 1.00073 2.47039 0.292041 -0.627064 -0.462204 -0.627023
Sp 2.18811 2.24606 2.03965 -0.295025 0.268229 -0.917068
Sp 0.610438 0.771205 0.456809 0.610424 -0.779651 -0.139738
Sp 0.415803 0.981774 1.42714 0.300064 0.806095 0.510072
d 5 5 5 0 0 1
d 5 5 5 0.5 0 0.866025
d 5 5 5 0.866025 0 0.5
d 5 5 5 1 0 4.64686e-14
d 5 5 5 0.866025 0 -0.5
d 5 5 5 0.5 0 -0.866025
d 5 5 5 0 0 1
d 5 5 5 0.433013 0.25 0.866025
d 5 5 5 0.75 0.433013 0.5
d 5 5 5 0.866025 0.5 4.64686e-14
d 5 5 5 0.75 0.433013 -0.5
d 5 5 5 0.433013 0.25 -0.866025
d 5 5 5 0 0 1
d 5 5 5 0.25 0.433013 0.866025
d 5 5 5 0.433013 0.75 0.5
d 5 5 5 0.5 0.866025 4.64686e-14
d 5 5 5 0.433013 0.75 -0.5
d 5 5 5 0.25 0.433013 -0.866025
d 5 5 5 0 0 1
d 5 5 5 2.32343e-14 0.5 0.866025
d 5 5 5 4.02429e-14 0.866025 0.5
d 5 5 5 4.64686e-14 1 4.64686e-14
d 5 5 5 4.02429e-14 0.866025 -0.5
d 5 5 5 2.32343e-14 0.5 -0.866025
d 5 5 5 -0 0 1
d 5 5 5 -0.25 0.433013 0.866025
d 5 5 5 -0.433013 0.75 0.5
d 5 5 5 -0.5 0.866025 4.64686e-14
d 5 5 5 -0.433013 0.75 -0.5
d 5 5 5 -0.25 0.433013 -0.866025
d 5 5 5 -0 0 1
d 5 5 5 -0.433013 0.25 0.866025
d 5 5 5 -0.75 0.433013 0.5
d 5 5 5 -0.866025 0.5 4.64686e-14
d 5 5 5 -0.75 0.433013 -0.5
d 5 5 5 -0.433013 0.25 -0.866025
d 5 5 5 -0 0 1
d 5 5 5 -0.5 4.64686e-14 0.866025
d 5 5 5 -0.866025 8.04859e-14 0.5
d 5 5 5 -1 9.29371e-14 4.64686e-14
d 5 5 5 -0.866025 8.04859e-14 -0.5
d 5 5 5 -0.5 4.64686e-14 -0.866025
d 5 5 5 -0 -0 1
d 5 5 5 -0.433013 -0.25 0.866025
d 5 5 5 -0.75 -0.433013 0.5
d 5 5 5 -0.866025 -0.5 4.64686e-14
d 5 5 5 -0.75 -0.433013 -0.5
d 5 5 5 -0.433013 -0.25 -0.866025
d 5 5 5 -0 -0 1
d 5 5 5 -0.25 -0.433013 0.866025
d 5 5 5 -0.433013 -0.75 0.5
d 5 5 5 -0.5 -0.866025 4.64686e-14
d 5 5 5 -0.433013 -0.75 -0.5
d 5 5 5 -0.25 -0.433013 -0.866025
d 5 5 5 -0 -0 1
d 5 5 5 -6.98139e-14 -0.5 0.866025
d 5 5 5 -1.20921e-13 -0.866025 0.5
d 5 5 5 -1.39628e-13 -1 4.64686e-14
d 5 5 5 -1.20921e-13 -0.866025 -0.5
d 5 5 5 -6.98139e-14 -0.5 -0.866025
d 5 5 5 0 -0 1
d 5 5 5 0.25 -0.433013 0.866025
d 5 5 5 0.433013 -0.75 0.5
d 5 5 5 0.5 -0.866025 4.64686e-14
d 5 5 5 0.433013 -0.75 -0.5
d 5 5 5 0.25 -0.433013 -0.866025
d 5 5 5 0 -0 1
d 5 5 5 0.433013 -0.25 0.866025
d 5 5 5 0.75 -0.433013 0.5
d 5 5 5 0.866025 -0.5 4.64686e-14
d 5 5 5 0.75 -0.433013 -0.5
d 5 5 5 0.433013 -0.25 -0.866025
