99
Liquid Crystals with Colloide in temperature=0.4, and potential=-1.42148e-22
Sp 2.20075 1.57246 1.37614 -0.939244 -0.229539 0.255209
Sp 1.4223 0.10649 0.0428141 0.295956 -0.00894786 -0.95516
Sp 0.395938 1.17101 1.80915 0.902297 0.421627 0.0899503
Sp 1.69134 0.428491 2.48548 0.33652 0.778186 -0.530265
Sp 0.431221 1.03493 1.13507 0.927714 -0.348457 0.133883
Sp 2.38397 2.40378 0.00178626 0.443738 0.473465 -0.760873
Sp 2.09102 1.41243 -0.46084 -0.41784 0.610317 0.672996
Sp 0.5254 0.553294 2.4598 0.187187 0.966399 0.176162
Sp 0.863752 1.65583 -0.337899 0.43106 0.885826 -0.171754
Sp 0.484402 2.07244 1.25195 0.952709 0.115587 -0.281044
Sp 1.11413 0.0337438 1.40956 0.127431 0.991227 -0.0350625
Sp 1.88216 -0.370897 1.50054 0.462125 -0.86799 0.181754
Sp -0.189517 1.33118 2.33183 0.0438806 0.853925 0.518542
Sp 1.12705 2.4163 2.25789 -0.212957 0.302514 0.929051
Sp -0.234275 2.20948 0.951337 -0.972074 -0.141881 0.18693
Sp 1.78958 -0.0759395 0.330139 -0.323098 0.403138 0.856205
Sp 1.43555 0.862553 0.209776 -0.8498 0.486405 -0.203101
Sp 2.43596 0.226924 2.08418 0.620229 0.489901 -0.612628
Sp -0.0280958 0.936279 1.03363 -0.511104 -0.270722 -0.815771
Sp 1.7833 -0.0685608 0.623662 0.267844 0.732699 0.62563
Sp -0.37563 0.354067 0.856963 -0.353451 -0.444111 -0.823309
Sp 1.2039 0.0980902 0.0827394 0.0389701 0.492568 0.869401
Sp 0.253364 2.43043 1.54405 -0.349623 -0.800179 0.487317
Sp 1.03373 2.22939 0.143133 -0.605155 -0.527934 -0.595881
Sp 2.05854 2.04136 2.27333 -0.343527 0.230177 -0.910499
Sp 1.87594 0.678489 0.179896 0.208393 -0.942073 -0.262813
Sp 0.415803 0.981774 1.42714 0.300064 0.806095 0.510072
d 5 5 5 0 0 1
d 5 5 5 0.5 0 0.866025
d 5 5 5 0.866025 0 0.5
d 5 5 5 1 0 4.64686e-14
d 5 5 5 0.866025 0 -0.5
d 5 5 5 0.5 0 -0.866025
d 5 5 5 0 0 1
d 5 5 5 0.433013 0.25 0.866025
d 5 5 5 0.75 0.433013 0.5
d 5 5 5 0.866025 0.5 4.64686e-14
d 5 5 5 0.75 0.433013 -0.5
d 5 5 5 0.433013 0.25 -0.866025
d 5 5 5 0 0 1
d 5 5 5 0.25 0.433013 0.866025
d 5 5 5 0.433013 0.75 0.5
d 5 5 5 0.5 0.866025 4.64686e-14
d 5 5 5 0.433013 0.75 -0.5
d 5 5 5 0.25 0.433013 -0.866025
d 5 5 5 0 0 1
d 5 5 5 2.32343e-14 0.5 0.866025
d 5 5 5 4.02429e-14 0.866025 0.5
d 5 5 5 4.64686e-14 1 4.64686e-14
d 5 5 5 4.02429e-14 0.866025 -0.5
d 5 5 5 2.32343e-14 0.5 -0.866025
d 5 5 5 -0 0 1
d 5 5 5 -0.25 0.433013 0.866025
d 5 5 5 -0.433013 0.75 0.5
d 5 5 5 -0.5 0.866025 4.64686e-14
d 5 5 5 -0.433013 0.75 -0.5
d 5 5 5 -0.25 0.433013 -0.866025
d 5 5 5 -0 0 1
d 5 5 5 -0.433013 0.25 0.866025
d 5 5 5 -0.75 0.433013 0.5
d 5 5 5 -0.866025 0.5 4.64686e-14
d 5 5 5 -0.75 0.433013 -0.5
d 5 5 5 -0.433013 0.25 -0.866025
d 5 5 5 -0 0 1
d 5 5 5 -0.5 4.64686e-14 0.866025
d 5 5 5 -0.866025 8.04859e-14 0.5
d 5 5 5 -1 9.29371e-14 4.64686e-14
d 5 5 5 -0.866025 8.04859e-14 -0.5
d 5 5 5 -0.5 4.64686e-14 -0.866025
d 5 5 5 -0 -0 1
d 5 5 5 -0.433013 -0.25 0.866025
d 5 5 5 -0.75 -0.433013 0.5
d 5 5 5 -0.866025 -0.5 4.64686e-14
d 5 5 5 -0.75 -0.433013 -0.5
d 5 5 5 -0.433013 -0.25 -0.866025
d 5 5 5 -0 -0 1
d 5 5 5 -0.25 -0.433013 0.866025
d 5 5 5 -0.433013 -0.75 0.5
d 5 5 5 -0.5 -0.866025 4.64686e-14
d 5 5 5 -0.433013 -0.75 -0.5
d 5 5 5 -0.25 -0.433013 -0.866025
d 5 5 5 -0 -0 1
d 5 5 5 -6.98139e-14 -0.5 0.866025
d 5 5 5 -1.20921e-13 -0.866025 0.5
d 5 5 5 -1.39628e-13 -1 4.64686e-14
d 5 5 5 -1.20921e-13 -0.866025 -0.5
d 5 5 5 -6.98139e-14 -0.5 -0.866025
d 5 5 5 0 -0 1
d 5 5 5 0.25 -0.433013 0.866025
d 5 5 5 0.433013 -0.75 0.5
d 5 5 5 0.5 -0.866025 4.64686e-14
d 5 5 5 0.433013 -0.75 -0.5
d 5 5 5 0.25 -0.433013 -0.866025
d 5 5 5 0 -0 1
d 5 5 5 0.433013 -0.25 0.866025
d 5 5 5 0.75 -0.433013 0.5
d 5 5 5 0.866025 -0.5 4.64686e-14
d 5 5 5 0.75 -0.433013 -0.5
d 5 5 5 0.433013 -0.25 -0.866025
