99
Liquid Crystals with Colloide in temperature=1.4, and potential=-5.53471e-23
Sp 2.42797 1.44817 1.53582 -0.914245 -0.269136 0.302857
Sp 0.599788 0.723514 -0.236266 0.307395 0.0107892 -0.951521
Sp 0.0179275 1.0981 1.59494 0.883729 0.467348 0.0246839
Sp -0.0741469 1.66726 1.47033 0.485702 0.870685 0.0774709
Sp 0.093924 0.388923 -0.207419 0.436599 -0.855799 -0.277468
Sp -0.26752 2.13513 1.96643 0.45351 0.290883 -0.842446
Sp 0.40658 0.621341 -0.44106 -0.0642187 0.564183 0.823148
Sp 1.51721 1.78743 -0.463529 -0.211989 0.695106 0.686942
Sp 1.42176 0.32733 1.5882 -0.17188 0.968672 0.179255
Sp 0.158307 1.58542 1.60026 0.969854 0.0378533 -0.24073
Sp 1.5307 0.38444 0.431436 0.235583 0.936823 -0.25858
Sp 0.0254861 1.44544 1.26837 0.852035 -0.511231 0.112603
Sp 2.26949 1.27783 1.5382 -0.0989787 0.933029 0.345919
Sp 1.08322 1.87358 1.13407 -0.280798 0.251375 0.926263
Sp 0.300561 0.983453 0.312569 -0.877216 -0.477712 0.047787
Sp 1.80122 0.595377 2.27808 -0.191808 0.920747 0.339756
Sp 1.35333 -0.2035 2.22375 -0.871673 0.234705 -0.430232
Sp 0.476731 -0.390793 1.29515 0.484822 0.712589 -0.507114
Sp -0.177965 2.48899 0.478193 -0.856097 0.0721382 -0.511755
Sp 1.20673 1.08473 -0.16295 0.359635 0.621917 0.695616
Sp 0.188338 0.418959 1.70826 -0.885892 -0.312456 -0.34288
Sp 0.398321 -0.114267 1.37681 0.62674 0.552604 0.549386
Sp 1.63691 0.127066 2.01897 -0.667027 -0.520803 0.532766
Sp 0.2538 0.110697 -0.287778 -0.166686 -0.485181 -0.85838
Sp -0.0801987 1.45845 0.199516 -0.344014 0.138385 -0.928711
Sp 1.79669 -0.0864504 1.68206 0.264103 -0.958846 -0.104228
Sp -0.400999 0.595108 0.551532 0.156277 0.546254 0.822912
d 5 5 5 0 0 1
d 5 5 5 0.5 0 0.866025
d 5 5 5 0.866025 0 0.5
d 5 5 5 1 0 4.64686e-14
d 5 5 5 0.866025 0 -0.5
d 5 5 5 0.5 0 -0.866025
d 5 5 5 0 0 1
d 5 5 5 0.433013 0.25 0.866025
d 5 5 5 0.75 0.433013 0.5
d 5 5 5 0.866025 0.5 4.64686e-14
d 5 5 5 0.75 0.433013 -0.5
d 5 5 5 0.433013 0.25 -0.866025
d 5 5 5 0 0 1
d 5 5 5 0.25 0.433013 0.866025
d 5 5 5 0.433013 0.75 0.5
d 5 5 5 0.5 0.866025 4.64686e-14
d 5 5 5 0.433013 0.75 -0.5
d 5 5 5 0.25 0.433013 -0.866025
d 5 5 5 0 0 1
d 5 5 5 2.32343e-14 0.5 0.866025
d 5 5 5 4.02429e-14 0.866025 0.5
d 5 5 5 4.64686e-14 1 4.64686e-14
d 5 5 5 4.02429e-14 0.866025 -0.5
d 5 5 5 2.32343e-14 0.5 -0.866025
d 5 5 5 -0 0 1
d 5 5 5 -0.25 0.433013 0.866025
d 5 5 5 -0.433013 0.75 0.5
d 5 5 5 -0.5 0.866025 4.64686e-14
d 5 5 5 -0.433013 0.75 -0.5
d 5 5 5 -0.25 0.433013 -0.866025
d 5 5 5 -0 0 1
d 5 5 5 -0.433013 0.25 0.866025
d 5 5 5 -0.75 0.433013 0.5
d 5 5 5 -0.866025 0.5 4.64686e-14
d 5 5 5 -0.75 0.433013 -0.5
d 5 5 5 -0.433013 0.25 -0.866025
d 5 5 5 -0 0 1
d 5 5 5 -0.5 4.64686e-14 0.866025
d 5 5 5 -0.866025 8.04859e-14 0.5
d 5 5 5 -1 9.29371e-14 4.64686e-14
d 5 5 5 -0.866025 8.04859e-14 -0.5
d 5 5 5 -0.5 4.64686e-14 -0.866025
d 5 5 5 -0 -0 1
d 5 5 5 -0.433013 -0.25 0.866025
d 5 5 5 -0.75 -0.433013 0.5
d 5 5 5 -0.866025 -0.5 4.64686e-14
d 5 5 5 -0.75 -0.433013 -0.5
d 5 5 5 -0.433013 -0.25 -0.866025
d 5 5 5 -0 -0 1
d 5 5 5 -0.25 -0.433013 0.866025
d 5 5 5 -0.433013 -0.75 0.5
d 5 5 5 -0.5 -0.866025 4.64686e-14
d 5 5 5 -0.433013 -0.75 -0.5
d 5 5 5 -0.25 -0.433013 -0.866025
d 5 5 5 -0 -0 1
d 5 5 5 -6.98139e-14 -0.5 0.866025
d 5 5 5 -1.20921e-13 -0.866025 0.5
d 5 5 5 -1.39628e-13 -1 4.64686e-14
d 5 5 5 -1.20921e-13 -0.866025 -0.5
d 5 5 5 -6.98139e-14 -0.5 -0.866025
d 5 5 5 0 -0 1
d 5 5 5 0.25 -0.433013 0.866025
d 5 5 5 0.433013 -0.75 0.5
d 5 5 5 0.5 -0.866025 4.64686e-14
d 5 5 5 0.433013 -0.75 -0.5
d 5 5 5 0.25 -0.433013 -0.866025
d 5 5 5 0 -0 1
d 5 5 5 0.433013 -0.25 0.866025
d 5 5 5 0.75 -0.433013 0.5
d 5 5 5 0.866025 -0.5 4.64686e-14
d 5 5 5 0.75 -0.433013 -0.5
d 5 5 5 0.433013 -0.25 -0.866025
