99
Liquid Crystals with Colloide in temperature=0.5, and potential=-1.4856e-22
Sp 2.20075 1.57246 1.37614 -0.939244 -0.229539 0.255209
Sp 1.26997 0.223028 1.07815 0.337244 -0.020892 -0.941186
Sp 0.0806598 2.35392 1.90473 0.743426 0.660414 0.105698
Sp 1.82124 0.37148 0.830627 0.430955 0.878165 -0.207616
Sp 2.13059 -0.252294 -0.229841 0.693363 -0.692677 -0.19861
Sp 2.04706 2.00562 2.33384 0.322616 0.345274 -0.881308
Sp -0.00579348 0.496102 -0.0482136 -0.196025 0.464829 0.863428
Sp -0.146422 0.0403606 -0.479183 0.0229175 0.976396 0.214767
Sp 0.477569 0.998909 -0.118078 0.413783 0.898005 -0.14957
Sp -0.110268 2.31228 0.800213 0.883112 0.200652 -0.424089
Sp 1.11413 0.0337438 1.40956 0.127431 0.991227 -0.0350625
Sp 1.95948 -0.357789 1.92367 0.462168 -0.845979 0.265934
Sp -0.29825 1.0928 2.47432 0.0141807 0.823907 0.566548
Sp 1.30105 2.37144 1.84067 -0.193833 0.325821 0.925348
Sp 0.10086 2.22818 0.64305 -0.979731 -0.143772 0.13949
Sp 0.881079 1.11169 -0.104689 -0.470967 0.599328 0.647299
Sp 2.04697 0.51307 2.45727 -0.788996 0.467871 -0.398225
Sp 0.73405 2.1555 -0.0822148 0.466729 0.497396 -0.731274
Sp 0.216305 2.17313 2.27553 -0.652086 -0.0145304 -0.758006
Sp 1.628 1.73622 -0.310775 0.421697 0.689013 0.589434
Sp 2.37894 0.11866 2.39915 -0.930812 -0.320068 -0.17648
Sp 1.46982 0.564446 -0.345219 0.105788 0.619039 0.778203
Sp 2.19158 -0.0664692 1.70885 -0.602721 -0.618523 0.50414
Sp -0.195747 -0.117817 0.304364 -0.291762 -0.530081 -0.796171
Sp 1.2344 1.67959 -0.102089 -0.567956 0.154601 -0.808409
Sp 1.23038 1.88269 0.252264 0.105536 -0.935969 -0.335893
Sp -0.260976 0.56724 1.35563 0.173346 0.809514 0.560926
d 5 5 5 0 0 1
d 5 5 5 0.5 0 0.866025
d 5 5 5 0.866025 0 0.5
d 5 5 5 1 0 4.64686e-14
d 5 5 5 0.866025 0 -0.5
d 5 5 5 0.5 0 -0.866025
d 5 5 5 0 0 1
d 5 5 5 0.433013 0.25 0.866025
d 5 5 5 0.75 0.433013 0.5
d 5 5 5 0.866025 0.5 4.64686e-14
d 5 5 5 0.75 0.433013 -0.5
d 5 5 5 0.433013 0.25 -0.866025
d 5 5 5 0 0 1
d 5 5 5 0.25 0.433013 0.866025
d 5 5 5 0.433013 0.75 0.5
d 5 5 5 0.5 0.866025 4.64686e-14
d 5 5 5 0.433013 0.75 -0.5
d 5 5 5 0.25 0.433013 -0.866025
d 5 5 5 0 0 1
d 5 5 5 2.32343e-14 0.5 0.866025
d 5 5 5 4.02429e-14 0.866025 0.5
d 5 5 5 4.64686e-14 1 4.64686e-14
d 5 5 5 4.02429e-14 0.866025 -0.5
d 5 5 5 2.32343e-14 0.5 -0.866025
d 5 5 5 -0 0 1
d 5 5 5 -0.25 0.433013 0.866025
d 5 5 5 -0.433013 0.75 0.5
d 5 5 5 -0.5 0.866025 4.64686e-14
d 5 5 5 -0.433013 0.75 -0.5
d 5 5 5 -0.25 0.433013 -0.866025
d 5 5 5 -0 0 1
d 5 5 5 -0.433013 0.25 0.866025
d 5 5 5 -0.75 0.433013 0.5
d 5 5 5 -0.866025 0.5 4.64686e-14
d 5 5 5 -0.75 0.433013 -0.5
d 5 5 5 -0.433013 0.25 -0.866025
d 5 5 5 -0 0 1
d 5 5 5 -0.5 4.64686e-14 0.866025
d 5 5 5 -0.866025 8.04859e-14 0.5
d 5 5 5 -1 9.29371e-14 4.64686e-14
d 5 5 5 -0.866025 8.04859e-14 -0.5
d 5 5 5 -0.5 4.64686e-14 -0.866025
d 5 5 5 -0 -0 1
d 5 5 5 -0.433013 -0.25 0.866025
d 5 5 5 -0.75 -0.433013 0.5
d 5 5 5 -0.866025 -0.5 4.64686e-14
d 5 5 5 -0.75 -0.433013 -0.5
d 5 5 5 -0.433013 -0.25 -0.866025
d 5 5 5 -0 -0 1
d 5 5 5 -0.25 -0.433013 0.866025
d 5 5 5 -0.433013 -0.75 0.5
d 5 5 5 -0.5 -0.866025 4.64686e-14
d 5 5 5 -0.433013 -0.75 -0.5
d 5 5 5 -0.25 -0.433013 -0.866025
d 5 5 5 -0 -0 1
d 5 5 5 -6.98139e-14 -0.5 0.866025
d 5 5 5 -1.20921e-13 -0.866025 0.5
d 5 5 5 -1.39628e-13 -1 4.64686e-14
d 5 5 5 -1.20921e-13 -0.866025 -0.5
d 5 5 5 -6.98139e-14 -0.5 -0.866025
d 5 5 5 0 -0 1
d 5 5 5 0.25 -0.433013 0.866025
d 5 5 5 0.433013 -0.75 0.5
d 5 5 5 0.5 -0.866025 4.64686e-14
d 5 5 5 0.433013 -0.75 -0.5
d 5 5 5 0.25 -0.433013 -0.866025
d 5 5 5 0 -0 1
d 5 5 5 0.433013 -0.25 0.866025
d 5 5 5 0.75 -0.433013 0.5
d 5 5 5 0.866025 -0.5 4.64686e-14
d 5 5 5 0.75 -0.433013 -0.5
d 5 5 5 0.433013 -0.25 -0.866025
