99
Liquid Crystals with Colloide in temperature=2, and potential=-1.20598e-22
Sp -0.475627 1.9111 1.82331 -0.910929 -0.160277 0.380157
Sp 0.652958 1.43606 0.214987 0.347169 0.208159 -0.914409
Sp 1.19462 -0.448803 1.48221 0.957809 0.287115 0.0129427
Sp 0.374927 2.17734 0.630111 0.506529 0.854956 -0.111703
Sp -0.151161 1.76794 2.43585 0.517217 -0.70859 -0.479986
Sp 0.442503 1.61722 -0.418626 0.665574 0.167919 -0.727196
Sp 0.386263 0.602424 1.23127 -0.109583 0.702578 0.703119
Sp 1.26895 1.04379 -0.302213 -0.300578 0.543482 0.78376
Sp 2.48665 -0.0812087 0.513882 0.101049 0.988534 -0.112201
Sp 1.50543 1.7113 0.180742 0.987148 0.126616 0.0975054
Sp 1.70278 0.347689 0.575466 0.278842 0.928553 -0.245025
Sp 0.016002 1.04478 2.37283 0.766141 -0.536689 0.353543
Sp 1.78491 1.06746 1.43742 -0.222653 0.916218 0.333121
Sp 1.08322 1.87358 1.13407 -0.280798 0.251375 0.926263
Sp 0.445457 0.462427 0.407996 -0.812572 -0.577425 0.0794121
Sp 1.75388 0.408698 0.163965 -0.189142 0.828136 0.527651
Sp 0.983862 0.00697259 -0.0327913 -0.924771 0.285687 -0.25136
Sp -0.279056 0.483086 0.429773 0.668645 0.708352 -0.226164
Sp 2.20359 -0.370134 1.58596 -0.964235 0.100655 -0.245193
Sp 0.810353 1.8551 0.0621297 0.199194 0.730501 0.653215
Sp 0.406506 1.36179 1.67932 -0.920275 -0.0736101 -0.384287
Sp 0.276988 2.42363 2.1653 0.564041 0.420925 0.710409
Sp 0.0551946 -0.0958898 2.06577 -0.399313 -0.657755 0.638676
Sp 0.893343 0.40631 1.89345 -0.000535406 -0.356944 -0.934126
Sp 0.32977 0.00775543 1.99492 -0.339115 0.603324 -0.721804
Sp 1.25464 0.653408 0.407594 0.17284 -0.92684 0.333308
Sp 0.687246 1.10311 0.0615348 0.398155 0.637949 0.659161
d 5 5 5 0 0 1
d 5 5 5 0.5 0 0.866025
d 5 5 5 0.866025 0 0.5
d 5 5 5 1 0 4.64686e-14
d 5 5 5 0.866025 0 -0.5
d 5 5 5 0.5 0 -0.866025
d 5 5 5 0 0 1
d 5 5 5 0.433013 0.25 0.866025
d 5 5 5 0.75 0.433013 0.5
d 5 5 5 0.866025 0.5 4.64686e-14
d 5 5 5 0.75 0.433013 -0.5
d 5 5 5 0.433013 0.25 -0.866025
d 5 5 5 0 0 1
d 5 5 5 0.25 0.433013 0.866025
d 5 5 5 0.433013 0.75 0.5
d 5 5 5 0.5 0.866025 4.64686e-14
d 5 5 5 0.433013 0.75 -0.5
d 5 5 5 0.25 0.433013 -0.866025
d 5 5 5 0 0 1
d 5 5 5 2.32343e-14 0.5 0.866025
d 5 5 5 4.02429e-14 0.866025 0.5
d 5 5 5 4.64686e-14 1 4.64686e-14
d 5 5 5 4.02429e-14 0.866025 -0.5
d 5 5 5 2.32343e-14 0.5 -0.866025
d 5 5 5 -0 0 1
d 5 5 5 -0.25 0.433013 0.866025
d 5 5 5 -0.433013 0.75 0.5
d 5 5 5 -0.5 0.866025 4.64686e-14
d 5 5 5 -0.433013 0.75 -0.5
d 5 5 5 -0.25 0.433013 -0.866025
d 5 5 5 -0 0 1
d 5 5 5 -0.433013 0.25 0.866025
d 5 5 5 -0.75 0.433013 0.5
d 5 5 5 -0.866025 0.5 4.64686e-14
d 5 5 5 -0.75 0.433013 -0.5
d 5 5 5 -0.433013 0.25 -0.866025
d 5 5 5 -0 0 1
d 5 5 5 -0.5 4.64686e-14 0.866025
d 5 5 5 -0.866025 8.04859e-14 0.5
d 5 5 5 -1 9.29371e-14 4.64686e-14
d 5 5 5 -0.866025 8.04859e-14 -0.5
d 5 5 5 -0.5 4.64686e-14 -0.866025
d 5 5 5 -0 -0 1
d 5 5 5 -0.433013 -0.25 0.866025
d 5 5 5 -0.75 -0.433013 0.5
d 5 5 5 -0.866025 -0.5 4.64686e-14
d 5 5 5 -0.75 -0.433013 -0.5
d 5 5 5 -0.433013 -0.25 -0.866025
d 5 5 5 -0 -0 1
d 5 5 5 -0.25 -0.433013 0.866025
d 5 5 5 -0.433013 -0.75 0.5
d 5 5 5 -0.5 -0.866025 4.64686e-14
d 5 5 5 -0.433013 -0.75 -0.5
d 5 5 5 -0.25 -0.433013 -0.866025
d 5 5 5 -0 -0 1
d 5 5 5 -6.98139e-14 -0.5 0.866025
d 5 5 5 -1.20921e-13 -0.866025 0.5
d 5 5 5 -1.39628e-13 -1 4.64686e-14
d 5 5 5 -1.20921e-13 -0.866025 -0.5
d 5 5 5 -6.98139e-14 -0.5 -0.866025
d 5 5 5 0 -0 1
d 5 5 5 0.25 -0.433013 0.866025
d 5 5 5 0.433013 -0.75 0.5
d 5 5 5 0.5 -0.866025 4.64686e-14
d 5 5 5 0.433013 -0.75 -0.5
d 5 5 5 0.25 -0.433013 -0.866025
d 5 5 5 0 -0 1
d 5 5 5 0.433013 -0.25 0.866025
d 5 5 5 0.75 -0.433013 0.5
d 5 5 5 0.866025 -0.5 4.64686e-14
d 5 5 5 0.75 -0.433013 -0.5
d 5 5 5 0.433013 -0.25 -0.866025
