99
Liquid Crystals with Colloide in temperature=0.5, and potential=-7.75521e-23
Sp 2.02429 1.54022 1.34767 -0.94462 -0.227688 0.236328
Sp 0.945504 0.400725 0.791432 0.240858 0.0244779 -0.970252
Sp 0.399978 2.28135 2.36598 0.770037 0.601911 0.21153
Sp 1.82124 0.37148 0.830627 0.430955 0.878165 -0.207616
Sp 2.0268 -0.244807 0.119257 0.690201 -0.713577 -0.120129
Sp 2.04706 2.00562 2.33384 0.322616 0.345274 -0.881308
Sp 0.215321 0.216965 0.286999 -0.134966 0.376977 0.916336
Sp 0.443244 -0.0256846 -0.425577 0.165812 0.959976 0.225728
Sp 0.65999 1.38544 -0.121112 0.413116 0.900109 -0.138345
Sp -0.142591 1.90193 1.24259 0.933609 0.115991 -0.338999
Sp 1.11413 0.0337438 1.40956 0.127431 0.991227 -0.0350625
Sp 2.02975 -0.366237 1.25897 0.489787 -0.865031 0.108761
Sp -0.0825471 1.63407 1.92096 0.0570413 0.915497 0.398261
Sp 1.44601 2.26323 1.82965 -0.160992 0.30448 0.938815
Sp -0.309779 1.54766 1.05957 -0.933664 -0.289586 0.210739
Sp 1.74639 1.49012 -0.423787 -0.276379 0.737186 0.61658
Sp 2.04697 0.51307 2.45727 -0.788996 0.467871 -0.398225
Sp 1.11006 1.93299 0.355316 0.58555 0.468325 -0.661667
Sp 0.144565 1.83531 2.4781 -0.683564 -0.0992881 -0.723106
Sp 1.2926 2.30172 -0.047532 0.303106 0.748867 0.589343
Sp 2.37894 0.11866 2.39915 -0.930812 -0.320068 -0.17648
Sp 1.59653 0.961271 -0.390843 0.131066 0.679156 0.722198
Sp 2.19158 -0.0664692 1.70885 -0.602721 -0.618523 0.50414
Sp -0.195747 -0.117817 0.304364 -0.291762 -0.530081 -0.796171
Sp 1.07523 1.59722 -0.193139 -0.585958 0.128076 -0.800156
Sp 0.833371 2.33171 0.0142043 0.0151993 -0.90442 -0.426372
Sp -0.039451 0.478771 1.2462 0.232399 0.80507 0.545759
d 5 5 5 0 0 1
d 5 5 5 0.5 0 0.866025
d 5 5 5 0.866025 0 0.5
d 5 5 5 1 0 4.64686e-14
d 5 5 5 0.866025 0 -0.5
d 5 5 5 0.5 0 -0.866025
d 5 5 5 0 0 1
d 5 5 5 0.433013 0.25 0.866025
d 5 5 5 0.75 0.433013 0.5
d 5 5 5 0.866025 0.5 4.64686e-14
d 5 5 5 0.75 0.433013 -0.5
d 5 5 5 0.433013 0.25 -0.866025
d 5 5 5 0 0 1
d 5 5 5 0.25 0.433013 0.866025
d 5 5 5 0.433013 0.75 0.5
d 5 5 5 0.5 0.866025 4.64686e-14
d 5 5 5 0.433013 0.75 -0.5
d 5 5 5 0.25 0.433013 -0.866025
d 5 5 5 0 0 1
d 5 5 5 2.32343e-14 0.5 0.866025
d 5 5 5 4.02429e-14 0.866025 0.5
d 5 5 5 4.64686e-14 1 4.64686e-14
d 5 5 5 4.02429e-14 0.866025 -0.5
d 5 5 5 2.32343e-14 0.5 -0.866025
d 5 5 5 -0 0 1
d 5 5 5 -0.25 0.433013 0.866025
d 5 5 5 -0.433013 0.75 0.5
d 5 5 5 -0.5 0.866025 4.64686e-14
d 5 5 5 -0.433013 0.75 -0.5
d 5 5 5 -0.25 0.433013 -0.866025
d 5 5 5 -0 0 1
d 5 5 5 -0.433013 0.25 0.866025
d 5 5 5 -0.75 0.433013 0.5
d 5 5 5 -0.866025 0.5 4.64686e-14
d 5 5 5 -0.75 0.433013 -0.5
d 5 5 5 -0.433013 0.25 -0.866025
d 5 5 5 -0 0 1
d 5 5 5 -0.5 4.64686e-14 0.866025
d 5 5 5 -0.866025 8.04859e-14 0.5
d 5 5 5 -1 9.29371e-14 4.64686e-14
d 5 5 5 -0.866025 8.04859e-14 -0.5
d 5 5 5 -0.5 4.64686e-14 -0.866025
d 5 5 5 -0 -0 1
d 5 5 5 -0.433013 -0.25 0.866025
d 5 5 5 -0.75 -0.433013 0.5
d 5 5 5 -0.866025 -0.5 4.64686e-14
d 5 5 5 -0.75 -0.433013 -0.5
d 5 5 5 -0.433013 -0.25 -0.866025
d 5 5 5 -0 -0 1
d 5 5 5 -0.25 -0.433013 0.866025
d 5 5 5 -0.433013 -0.75 0.5
d 5 5 5 -0.5 -0.866025 4.64686e-14
d 5 5 5 -0.433013 -0.75 -0.5
d 5 5 5 -0.25 -0.433013 -0.866025
d 5 5 5 -0 -0 1
d 5 5 5 -6.98139e-14 -0.5 0.866025
d 5 5 5 -1.20921e-13 -0.866025 0.5
d 5 5 5 -1.39628e-13 -1 4.64686e-14
d 5 5 5 -1.20921e-13 -0.866025 -0.5
d 5 5 5 -6.98139e-14 -0.5 -0.866025
d 5 5 5 0 -0 1
d 5 5 5 0.25 -0.433013 0.866025
d 5 5 5 0.433013 -0.75 0.5
d 5 5 5 0.5 -0.866025 4.64686e-14
d 5 5 5 0.433013 -0.75 -0.5
d 5 5 5 0.25 -0.433013 -0.866025
d 5 5 5 0 -0 1
d 5 5 5 0.433013 -0.25 0.866025
d 5 5 5 0.75 -0.433013 0.5
d 5 5 5 0.866025 -0.5 4.64686e-14
d 5 5 5 0.75 -0.433013 -0.5
d 5 5 5 0.433013 -0.25 -0.866025
