99
Liquid Crystals with Colloide in temperature=0.2, and potential=-3.98209e-22
Sp 2.24021 1.2644 1.08776 -0.933548 -0.30373 0.190359
Sp 0.617976 1.35379 0.161167 0.32415 0.261072 -0.909268
Sp 0.499653 1.05748 1.92538 0.914427 0.387399 0.117239
Sp 2.36369 2.34758 0.173395 0.557846 0.687625 -0.464735
Sp 0.462635 2.36806 0.951336 0.99397 -0.0611538 0.0910147
Sp 2.20147 0.970711 2.25781 0.262006 0.658153 -0.705824
Sp 1.5183 2.48367 0.261683 0.2441 0.692629 0.678735
Sp 0.634954 0.437723 2.18662 0.221719 0.968719 0.11146
Sp 1.39952 -0.323784 2.10195 0.416785 0.866542 -0.274582
Sp 0.352217 1.97205 1.45877 0.965996 0.0950852 -0.24044
Sp 1.46116 0.121504 1.70527 0.212736 0.976345 0.0386559
Sp 1.63944 2.46844 0.256737 0.38552 -0.914743 -0.120908
Sp 1.52116 -0.413166 2.06267 -0.277631 0.613174 0.739553
Sp 1.44452 2.2378 2.36837 -0.133506 0.258311 0.956792
Sp -0.234275 2.20948 0.951337 -0.972074 -0.141881 0.18693
Sp 0.626485 1.3888 0.281259 0.150346 0.155404 0.976343
Sp 2.03686 0.540652 0.68476 -0.868244 0.479627 -0.126925
Sp 1.40482 2.46457 0.474255 0.351251 0.271809 -0.895959
Sp -0.190684 1.64853 0.466367 -0.499705 -0.0811755 -0.862384
Sp 2.10695 1.59156 0.16133 0.287952 0.889121 0.355735
Sp 0.493812 0.111664 1.75295 -0.11899 -0.319449 -0.940103
Sp -0.225005 0.594492 0.146011 -0.339728 0.551121 0.762135
Sp -0.077559 2.371 1.43445 -0.432304 -0.78909 0.436406
Sp 0.274576 0.168196 -0.308666 -0.696258 -0.232733 -0.679014
Sp 2.28121 2.10266 1.82321 -0.262517 0.224558 -0.938434
Sp 0.210821 0.646977 0.0743646 0.525728 -0.817595 -0.234837
Sp 0.415803 0.981774 1.42714 0.300064 0.806095 0.510072
d 5 5 5 0 0 1
d 5 5 5 0.5 0 0.866025
d 5 5 5 0.866025 0 0.5
d 5 5 5 1 0 4.64686e-14
d 5 5 5 0.866025 0 -0.5
d 5 5 5 0.5 0 -0.866025
d 5 5 5 0 0 1
d 5 5 5 0.433013 0.25 0.866025
d 5 5 5 0.75 0.433013 0.5
d 5 5 5 0.866025 0.5 4.64686e-14
d 5 5 5 0.75 0.433013 -0.5
d 5 5 5 0.433013 0.25 -0.866025
d 5 5 5 0 0 1
d 5 5 5 0.25 0.433013 0.866025
d 5 5 5 0.433013 0.75 0.5
d 5 5 5 0.5 0.866025 4.64686e-14
d 5 5 5 0.433013 0.75 -0.5
d 5 5 5 0.25 0.433013 -0.866025
d 5 5 5 0 0 1
d 5 5 5 2.32343e-14 0.5 0.866025
d 5 5 5 4.02429e-14 0.866025 0.5
d 5 5 5 4.64686e-14 1 4.64686e-14
d 5 5 5 4.02429e-14 0.866025 -0.5
d 5 5 5 2.32343e-14 0.5 -0.866025
d 5 5 5 -0 0 1
d 5 5 5 -0.25 0.433013 0.866025
d 5 5 5 -0.433013 0.75 0.5
d 5 5 5 -0.5 0.866025 4.64686e-14
d 5 5 5 -0.433013 0.75 -0.5
d 5 5 5 -0.25 0.433013 -0.866025
d 5 5 5 -0 0 1
d 5 5 5 -0.433013 0.25 0.866025
d 5 5 5 -0.75 0.433013 0.5
d 5 5 5 -0.866025 0.5 4.64686e-14
d 5 5 5 -0.75 0.433013 -0.5
d 5 5 5 -0.433013 0.25 -0.866025
d 5 5 5 -0 0 1
d 5 5 5 -0.5 4.64686e-14 0.866025
d 5 5 5 -0.866025 8.04859e-14 0.5
d 5 5 5 -1 9.29371e-14 4.64686e-14
d 5 5 5 -0.866025 8.04859e-14 -0.5
d 5 5 5 -0.5 4.64686e-14 -0.866025
d 5 5 5 -0 -0 1
d 5 5 5 -0.433013 -0.25 0.866025
d 5 5 5 -0.75 -0.433013 0.5
d 5 5 5 -0.866025 -0.5 4.64686e-14
d 5 5 5 -0.75 -0.433013 -0.5
d 5 5 5 -0.433013 -0.25 -0.866025
d 5 5 5 -0 -0 1
d 5 5 5 -0.25 -0.433013 0.866025
d 5 5 5 -0.433013 -0.75 0.5
d 5 5 5 -0.5 -0.866025 4.64686e-14
d 5 5 5 -0.433013 -0.75 -0.5
d 5 5 5 -0.25 -0.433013 -0.866025
d 5 5 5 -0 -0 1
d 5 5 5 -6.98139e-14 -0.5 0.866025
d 5 5 5 -1.20921e-13 -0.866025 0.5
d 5 5 5 -1.39628e-13 -1 4.64686e-14
d 5 5 5 -1.20921e-13 -0.866025 -0.5
d 5 5 5 -6.98139e-14 -0.5 -0.866025
d 5 5 5 0 -0 1
d 5 5 5 0.25 -0.433013 0.866025
d 5 5 5 0.433013 -0.75 0.5
d 5 5 5 0.5 -0.866025 4.64686e-14
d 5 5 5 0.433013 -0.75 -0.5
d 5 5 5 0.25 -0.433013 -0.866025
d 5 5 5 0 -0 1
d 5 5 5 0.433013 -0.25 0.866025
d 5 5 5 0.75 -0.433013 0.5
d 5 5 5 0.866025 -0.5 4.64686e-14
d 5 5 5 0.75 -0.433013 -0.5
d 5 5 5 0.433013 -0.25 -0.866025
