99
Liquid Crystals with Colloide in temperature=0.4, and potential=-1.87696e-22
Sp 2.08375 1.61393 1.00512 -0.962857 -0.212151 0.167028
Sp 1.86479 0.29436 -0.200818 0.367367 0.0220859 -0.929814
Sp 0.395938 1.17101 1.80915 0.902297 0.421627 0.0899503
Sp 1.33671 1.35269 0.364109 0.221047 0.934228 -0.279922
Sp 0.279566 1.57776 1.15075 0.958788 -0.241234 0.150107
Sp 2.16456 0.839248 2.28809 0.261129 0.644913 -0.718261
Sp -0.36508 1.54822 -0.202491 -0.252144 0.645338 0.721084
Sp 0.5254 0.553294 2.4598 0.187187 0.966399 0.176162
Sp 1.38278 1.79922 0.125088 0.527976 0.847824 -0.0493521
Sp 0.352217 1.97205 1.45877 0.965996 0.0950852 -0.24044
Sp 1.46116 0.121504 1.70527 0.212736 0.976345 0.0386559
Sp 2.04847 0.396249 0.785399 0.568415 -0.822655 0.0119532
Sp 2.17485 2.0632 0.207828 -0.104124 0.793824 0.599168
Sp 1.12705 2.4163 2.25789 -0.212957 0.302514 0.929051
Sp -0.234275 2.20948 0.951337 -0.972074 -0.141881 0.18693
Sp -0.403618 1.16631 -0.354471 -0.109466 0.70456 0.70115
Sp 1.74643 1.40577 -0.36521 -0.730425 0.598634 -0.328811
Sp 0.976924 0.249123 1.73547 0.323886 0.535619 -0.779878
Sp 0.18432 1.7383 0.980398 -0.494806 -0.116671 -0.861136
Sp 1.40606 2.02964 0.0281987 0.100926 0.942437 0.318789
Sp 0.12736 -0.19905 0.23686 -0.188583 -0.488421 -0.851987
Sp 0.821736 0.223749 -0.100316 -0.0459132 0.53037 0.846522
Sp 2.39636 1.92365 -0.164686 -0.425272 -0.659267 0.62009
Sp 1.00132 1.41554 0.117584 -0.526597 -0.663511 -0.531459
Sp 2.18215 2.43827 2.31135 -0.309667 0.326055 -0.893193
Sp 2.3523 0.344617 0.283732 0.303701 -0.929532 -0.209133
Sp 0.415803 0.981774 1.42714 0.300064 0.806095 0.510072
d 5 5 5 0 0 1
d 5 5 5 0.5 0 0.866025
d 5 5 5 0.866025 0 0.5
d 5 5 5 1 0 4.64686e-14
d 5 5 5 0.866025 0 -0.5
d 5 5 5 0.5 0 -0.866025
d 5 5 5 0 0 1
d 5 5 5 0.433013 0.25 0.866025
d 5 5 5 0.75 0.433013 0.5
d 5 5 5 0.866025 0.5 4.64686e-14
d 5 5 5 0.75 0.433013 -0.5
d 5 5 5 0.433013 0.25 -0.866025
d 5 5 5 0 0 1
d 5 5 5 0.25 0.433013 0.866025
d 5 5 5 0.433013 0.75 0.5
d 5 5 5 0.5 0.866025 4.64686e-14
d 5 5 5 0.433013 0.75 -0.5
d 5 5 5 0.25 0.433013 -0.866025
d 5 5 5 0 0 1
d 5 5 5 2.32343e-14 0.5 0.866025
d 5 5 5 4.02429e-14 0.866025 0.5
d 5 5 5 4.64686e-14 1 4.64686e-14
d 5 5 5 4.02429e-14 0.866025 -0.5
d 5 5 5 2.32343e-14 0.5 -0.866025
d 5 5 5 -0 0 1
d 5 5 5 -0.25 0.433013 0.866025
d 5 5 5 -0.433013 0.75 0.5
d 5 5 5 -0.5 0.866025 4.64686e-14
d 5 5 5 -0.433013 0.75 -0.5
d 5 5 5 -0.25 0.433013 -0.866025
d 5 5 5 -0 0 1
d 5 5 5 -0.433013 0.25 0.866025
d 5 5 5 -0.75 0.433013 0.5
d 5 5 5 -0.866025 0.5 4.64686e-14
d 5 5 5 -0.75 0.433013 -0.5
d 5 5 5 -0.433013 0.25 -0.866025
d 5 5 5 -0 0 1
d 5 5 5 -0.5 4.64686e-14 0.866025
d 5 5 5 -0.866025 8.04859e-14 0.5
d 5 5 5 -1 9.29371e-14 4.64686e-14
d 5 5 5 -0.866025 8.04859e-14 -0.5
d 5 5 5 -0.5 4.64686e-14 -0.866025
d 5 5 5 -0 -0 1
d 5 5 5 -0.433013 -0.25 0.866025
d 5 5 5 -0.75 -0.433013 0.5
d 5 5 5 -0.866025 -0.5 4.64686e-14
d 5 5 5 -0.75 -0.433013 -0.5
d 5 5 5 -0.433013 -0.25 -0.866025
d 5 5 5 -0 -0 1
d 5 5 5 -0.25 -0.433013 0.866025
d 5 5 5 -0.433013 -0.75 0.5
d 5 5 5 -0.5 -0.866025 4.64686e-14
d 5 5 5 -0.433013 -0.75 -0.5
d 5 5 5 -0.25 -0.433013 -0.866025
d 5 5 5 -0 -0 1
d 5 5 5 -6.98139e-14 -0.5 0.866025
d 5 5 5 -1.20921e-13 -0.866025 0.5
d 5 5 5 -1.39628e-13 -1 4.64686e-14
d 5 5 5 -1.20921e-13 -0.866025 -0.5
d 5 5 5 -6.98139e-14 -0.5 -0.866025
d 5 5 5 0 -0 1
d 5 5 5 0.25 -0.433013 0.866025
d 5 5 5 0.433013 -0.75 0.5
d 5 5 5 0.5 -0.866025 4.64686e-14
d 5 5 5 0.433013 -0.75 -0.5
d 5 5 5 0.25 -0.433013 -0.866025
d 5 5 5 0 -0 1
d 5 5 5 0.433013 -0.25 0.866025
d 5 5 5 0.75 -0.433013 0.5
d 5 5 5 0.866025 -0.5 4.64686e-14
d 5 5 5 0.75 -0.433013 -0.5
d 5 5 5 0.433013 -0.25 -0.866025
