99
Liquid Crystals with Colloide in temperature=0.6, and potential=-6.88595e-23
Sp 2.49305 1.50292 1.57407 -0.911482 -0.258904 0.319639
Sp 1.05728 -0.290362 2.30045 0.359835 -0.214205 -0.908094
Sp 0.476869 2.3977 1.89766 0.775788 0.625585 0.0824407
Sp -0.448029 0.741917 0.0659024 0.496641 0.805939 -0.322196
Sp 0.92556 0.304771 -0.0173809 0.604881 -0.769618 -0.204468
Sp 2.04706 2.00562 2.33384 0.322616 0.345274 -0.881308
Sp 1.14333 0.79777 0.219737 0.102377 0.506091 0.856383
Sp 0.222981 1.29703 0.065639 0.173637 0.882716 0.43665
Sp -0.246466 1.16823 0.601468 0.23815 0.970908 0.0249451
Sp -0.317921 1.73425 1.51714 0.952846 0.0793385 -0.2929
Sp 0.45622 0.176791 0.970166 -0.031734 0.98957 -0.140512
Sp 1.60781 -0.0477562 0.616352 0.448827 -0.892257 -0.0493078
Sp -0.21904 1.6756 1.84487 0.015981 0.930305 0.366439
Sp 1.407 1.96085 1.62117 -0.181754 0.246475 0.951954
Sp -0.213284 1.58699 0.545919 -0.950249 -0.297669 0.0917596
Sp 1.96609 2.25714 -0.321929 -0.176629 0.819401 0.54533
Sp 1.11344 -0.0696701 -0.360931 -0.915068 0.268738 -0.300715
Sp 0.804029 2.39555 0.0494713 0.470555 0.549889 -0.690073
Sp -0.47306 2.06408 -0.283052 -0.792702 -0.0343179 -0.608642
Sp 0.889477 -0.237901 0.0564182 0.198758 0.798227 0.56862
Sp 0.282822 0.542955 1.9799 -0.905788 -0.284058 -0.31442
Sp 2.10749 0.553417 -0.38638 0.277948 0.591843 0.756615
Sp 1.69854 0.375783 1.90658 -0.696121 -0.483362 0.530826
Sp -0.0804541 -0.0968748 1.09201 -0.297911 -0.628212 -0.718748
Sp 0.631478 1.2892 0.255366 -0.70422 0.0515341 -0.708109
Sp 1.00214 -0.229737 0.893661 0.0775044 -0.962225 -0.260991
Sp -0.0390932 0.23277 1.76049 0.220314 0.715866 0.662569
d 5 5 5 0 0 1
d 5 5 5 0.5 0 0.866025
d 5 5 5 0.866025 0 0.5
d 5 5 5 1 0 4.64686e-14
d 5 5 5 0.866025 0 -0.5
d 5 5 5 0.5 0 -0.866025
d 5 5 5 0 0 1
d 5 5 5 0.433013 0.25 0.866025
d 5 5 5 0.75 0.433013 0.5
d 5 5 5 0.866025 0.5 4.64686e-14
d 5 5 5 0.75 0.433013 -0.5
d 5 5 5 0.433013 0.25 -0.866025
d 5 5 5 0 0 1
d 5 5 5 0.25 0.433013 0.866025
d 5 5 5 0.433013 0.75 0.5
d 5 5 5 0.5 0.866025 4.64686e-14
d 5 5 5 0.433013 0.75 -0.5
d 5 5 5 0.25 0.433013 -0.866025
d 5 5 5 0 0 1
d 5 5 5 2.32343e-14 0.5 0.866025
d 5 5 5 4.02429e-14 0.866025 0.5
d 5 5 5 4.64686e-14 1 4.64686e-14
d 5 5 5 4.02429e-14 0.866025 -0.5
d 5 5 5 2.32343e-14 0.5 -0.866025
d 5 5 5 -0 0 1
d 5 5 5 -0.25 0.433013 0.866025
d 5 5 5 -0.433013 0.75 0.5
d 5 5 5 -0.5 0.866025 4.64686e-14
d 5 5 5 -0.433013 0.75 -0.5
d 5 5 5 -0.25 0.433013 -0.866025
d 5 5 5 -0 0 1
d 5 5 5 -0.433013 0.25 0.866025
d 5 5 5 -0.75 0.433013 0.5
d 5 5 5 -0.866025 0.5 4.64686e-14
d 5 5 5 -0.75 0.433013 -0.5
d 5 5 5 -0.433013 0.25 -0.866025
d 5 5 5 -0 0 1
d 5 5 5 -0.5 4.64686e-14 0.866025
d 5 5 5 -0.866025 8.04859e-14 0.5
d 5 5 5 -1 9.29371e-14 4.64686e-14
d 5 5 5 -0.866025 8.04859e-14 -0.5
d 5 5 5 -0.5 4.64686e-14 -0.866025
d 5 5 5 -0 -0 1
d 5 5 5 -0.433013 -0.25 0.866025
d 5 5 5 -0.75 -0.433013 0.5
d 5 5 5 -0.866025 -0.5 4.64686e-14
d 5 5 5 -0.75 -0.433013 -0.5
d 5 5 5 -0.433013 -0.25 -0.866025
d 5 5 5 -0 -0 1
d 5 5 5 -0.25 -0.433013 0.866025
d 5 5 5 -0.433013 -0.75 0.5
d 5 5 5 -0.5 -0.866025 4.64686e-14
d 5 5 5 -0.433013 -0.75 -0.5
d 5 5 5 -0.25 -0.433013 -0.866025
d 5 5 5 -0 -0 1
d 5 5 5 -6.98139e-14 -0.5 0.866025
d 5 5 5 -1.20921e-13 -0.866025 0.5
d 5 5 5 -1.39628e-13 -1 4.64686e-14
d 5 5 5 -1.20921e-13 -0.866025 -0.5
d 5 5 5 -6.98139e-14 -0.5 -0.866025
d 5 5 5 0 -0 1
d 5 5 5 0.25 -0.433013 0.866025
d 5 5 5 0.433013 -0.75 0.5
d 5 5 5 0.5 -0.866025 4.64686e-14
d 5 5 5 0.433013 -0.75 -0.5
d 5 5 5 0.25 -0.433013 -0.866025
d 5 5 5 0 -0 1
d 5 5 5 0.433013 -0.25 0.866025
d 5 5 5 0.75 -0.433013 0.5
d 5 5 5 0.866025 -0.5 4.64686e-14
d 5 5 5 0.75 -0.433013 -0.5
d 5 5 5 0.433013 -0.25 -0.866025
