99
Liquid Crystals with Colloide in temperature=1, and potential=-2.77748e-23
Sp 2.29219 1.53702 1.63037 -0.918095 -0.239088 0.31613
Sp 1.42949 -0.189285 1.76719 0.401766 -0.174761 -0.898912
Sp 0.493639 2.34762 1.75081 0.782888 0.620343 0.0475448
Sp 0.409461 0.952991 1.15203 0.632551 0.774452 0.0102146
Sp 2.44885 0.374593 0.0174796 0.320252 -0.918481 -0.232015
Sp -0.0199082 -0.0220934 1.88988 0.462374 0.456328 -0.760247
Sp 0.885552 0.89208 0.234739 0.0664823 0.540643 0.838621
Sp -0.193326 2.37913 0.530001 0.0981332 0.667111 0.738466
Sp -0.260593 2.38109 1.4511 0.156473 0.966895 0.201571
Sp -0.294678 1.39373 1.2442 0.933025 -0.00795571 -0.359724
Sp 0.914595 0.14688 0.774226 0.0986039 0.977148 -0.188308
Sp -0.403069 0.51818 1.30676 0.695978 -0.708367 0.117607
Sp -0.358361 1.43716 1.85368 -0.00559803 0.916433 0.400149
Sp 1.08322 1.87358 1.13407 -0.280798 0.251375 0.926263
Sp -0.377324 1.2536 0.717531 -0.924476 -0.357556 0.132281
Sp 2.45955 0.00244396 2.43854 -0.0518143 0.905181 0.421857
Sp 1.8199 0.0789786 1.60435 -0.758414 0.30311 -0.577004
Sp 0.504188 -0.490579 0.435212 0.432668 0.627347 -0.647483
Sp 2.36476 2.30402 -0.333031 -0.795265 0.022872 -0.60583
Sp -0.0293537 2.39219 2.47997 0.0255495 0.854092 0.519494
Sp -0.197869 0.30271 1.82423 -0.900861 -0.319226 -0.294186
Sp -0.318561 -0.282494 1.5553 0.509965 0.519108 0.685903
Sp 1.26856 0.0849897 1.17325 -0.775806 -0.534447 0.335397
Sp -0.235913 0.569149 0.852408 -0.348975 -0.483839 -0.802568
Sp 0.332923 1.30609 0.696367 -0.811683 0.0628535 -0.580707
Sp 0.417177 0.604962 1.55668 -0.073079 -0.987047 -0.14282
Sp 1.60955 -0.0130591 2.23893 -0.13057 0.627615 0.767496
d 5 5 5 0 0 1
d 5 5 5 0.5 0 0.866025
d 5 5 5 0.866025 0 0.5
d 5 5 5 1 0 4.64686e-14
d 5 5 5 0.866025 0 -0.5
d 5 5 5 0.5 0 -0.866025
d 5 5 5 0 0 1
d 5 5 5 0.433013 0.25 0.866025
d 5 5 5 0.75 0.433013 0.5
d 5 5 5 0.866025 0.5 4.64686e-14
d 5 5 5 0.75 0.433013 -0.5
d 5 5 5 0.433013 0.25 -0.866025
d 5 5 5 0 0 1
d 5 5 5 0.25 0.433013 0.866025
d 5 5 5 0.433013 0.75 0.5
d 5 5 5 0.5 0.866025 4.64686e-14
d 5 5 5 0.433013 0.75 -0.5
d 5 5 5 0.25 0.433013 -0.866025
d 5 5 5 0 0 1
d 5 5 5 2.32343e-14 0.5 0.866025
d 5 5 5 4.02429e-14 0.866025 0.5
d 5 5 5 4.64686e-14 1 4.64686e-14
d 5 5 5 4.02429e-14 0.866025 -0.5
d 5 5 5 2.32343e-14 0.5 -0.866025
d 5 5 5 -0 0 1
d 5 5 5 -0.25 0.433013 0.866025
d 5 5 5 -0.433013 0.75 0.5
d 5 5 5 -0.5 0.866025 4.64686e-14
d 5 5 5 -0.433013 0.75 -0.5
d 5 5 5 -0.25 0.433013 -0.866025
d 5 5 5 -0 0 1
d 5 5 5 -0.433013 0.25 0.866025
d 5 5 5 -0.75 0.433013 0.5
d 5 5 5 -0.866025 0.5 4.64686e-14
d 5 5 5 -0.75 0.433013 -0.5
d 5 5 5 -0.433013 0.25 -0.866025
d 5 5 5 -0 0 1
d 5 5 5 -0.5 4.64686e-14 0.866025
d 5 5 5 -0.866025 8.04859e-14 0.5
d 5 5 5 -1 9.29371e-14 4.64686e-14
d 5 5 5 -0.866025 8.04859e-14 -0.5
d 5 5 5 -0.5 4.64686e-14 -0.866025
d 5 5 5 -0 -0 1
d 5 5 5 -0.433013 -0.25 0.866025
d 5 5 5 -0.75 -0.433013 0.5
d 5 5 5 -0.866025 -0.5 4.64686e-14
d 5 5 5 -0.75 -0.433013 -0.5
d 5 5 5 -0.433013 -0.25 -0.866025
d 5 5 5 -0 -0 1
d 5 5 5 -0.25 -0.433013 0.866025
d 5 5 5 -0.433013 -0.75 0.5
d 5 5 5 -0.5 -0.866025 4.64686e-14
d 5 5 5 -0.433013 -0.75 -0.5
d 5 5 5 -0.25 -0.433013 -0.866025
d 5 5 5 -0 -0 1
d 5 5 5 -6.98139e-14 -0.5 0.866025
d 5 5 5 -1.20921e-13 -0.866025 0.5
d 5 5 5 -1.39628e-13 -1 4.64686e-14
d 5 5 5 -1.20921e-13 -0.866025 -0.5
d 5 5 5 -6.98139e-14 -0.5 -0.866025
d 5 5 5 0 -0 1
d 5 5 5 0.25 -0.433013 0.866025
d 5 5 5 0.433013 -0.75 0.5
d 5 5 5 0.5 -0.866025 4.64686e-14
d 5 5 5 0.433013 -0.75 -0.5
d 5 5 5 0.25 -0.433013 -0.866025
d 5 5 5 0 -0 1
d 5 5 5 0.433013 -0.25 0.866025
d 5 5 5 0.75 -0.433013 0.5
d 5 5 5 0.866025 -0.5 4.64686e-14
d 5 5 5 0.75 -0.433013 -0.5
d 5 5 5 0.433013 -0.25 -0.866025
