99
Liquid Crystals with Colloide in temperature=0.5, and potential=-9.94828e-23
Sp 2.20075 1.57246 1.37614 -0.939244 -0.229539 0.255209
Sp 1.42346 -0.486573 0.9506 0.357357 -0.190405 -0.914353
Sp 0.395938 1.17101 1.80915 0.902297 0.421627 0.0899503
Sp 2.15744 0.451077 0.394385 0.47405 0.831374 -0.289988
Sp 2.20205 0.130779 0.629749 0.768735 -0.639087 0.0247768
Sp -0.4653 -0.0821637 2.30576 0.391194 0.497673 -0.774138
Sp 0.162388 1.33364 -0.415261 -0.136628 0.653187 0.744768
Sp 2.09291 0.182784 -0.0444124 -0.163355 0.936722 0.309624
Sp 0.22824 0.863944 -0.261587 0.37227 0.906578 -0.198826
Sp 0.850518 -0.442996 1.2779 0.944764 0.219057 -0.243794
Sp 1.11413 0.0337438 1.40956 0.127431 0.991227 -0.0350625
Sp 1.80716 0.454497 1.90439 0.519012 -0.79418 0.316076
Sp 0.213874 0.848732 2.00925 0.149276 0.849867 0.505413
Sp 1.10582 2.47607 2.19933 -0.22006 0.32002 0.921499
Sp 0.122438 -0.0575301 0.796732 -0.982803 0.0365639 0.181001
Sp 1.20714 0.174633 -0.331448 -0.483617 0.479459 0.73228
Sp 2.41522 0.246412 -0.163756 -0.81252 0.46331 -0.353772
Sp 1.26165 -0.363348 0.186401 0.549522 0.574193 -0.6069
Sp 0.304351 1.79001 2.12533 -0.616042 -0.106677 -0.780456
Sp 2.45313 2.1301 0.156505 0.516108 0.637056 0.572531
Sp 0.829926 0.0472153 1.07919 -0.681685 -0.424127 -0.596173
Sp 1.69542 0.149171 -0.323994 0.168156 0.537089 0.826595
Sp -0.0636771 2.11917 1.72019 -0.389507 -0.78572 0.48055
Sp 1.38711 2.03094 0.0160164 -0.512667 -0.584141 -0.629248
Sp 2.05854 2.04136 2.27333 -0.343527 0.230177 -0.910499
Sp 1.8466 1.55118 0.316492 0.24746 -0.924478 -0.290006
Sp 0.415803 0.981774 1.42714 0.300064 0.806095 0.510072
d 5 5 5 0 0 1
d 5 5 5 0.5 0 0.866025
d 5 5 5 0.866025 0 0.5
d 5 5 5 1 0 4.64686e-14
d 5 5 5 0.866025 0 -0.5
d 5 5 5 0.5 0 -0.866025
d 5 5 5 0 0 1
d 5 5 5 0.433013 0.25 0.866025
d 5 5 5 0.75 0.433013 0.5
d 5 5 5 0.866025 0.5 4.64686e-14
d 5 5 5 0.75 0.433013 -0.5
d 5 5 5 0.433013 0.25 -0.866025
d 5 5 5 0 0 1
d 5 5 5 0.25 0.433013 0.866025
d 5 5 5 0.433013 0.75 0.5
d 5 5 5 0.5 0.866025 4.64686e-14
d 5 5 5 0.433013 0.75 -0.5
d 5 5 5 0.25 0.433013 -0.866025
d 5 5 5 0 0 1
d 5 5 5 2.32343e-14 0.5 0.866025
d 5 5 5 4.02429e-14 0.866025 0.5
d 5 5 5 4.64686e-14 1 4.64686e-14
d 5 5 5 4.02429e-14 0.866025 -0.5
d 5 5 5 2.32343e-14 0.5 -0.866025
d 5 5 5 -0 0 1
d 5 5 5 -0.25 0.433013 0.866025
d 5 5 5 -0.433013 0.75 0.5
d 5 5 5 -0.5 0.866025 4.64686e-14
d 5 5 5 -0.433013 0.75 -0.5
d 5 5 5 -0.25 0.433013 -0.866025
d 5 5 5 -0 0 1
d 5 5 5 -0.433013 0.25 0.866025
d 5 5 5 -0.75 0.433013 0.5
d 5 5 5 -0.866025 0.5 4.64686e-14
d 5 5 5 -0.75 0.433013 -0.5
d 5 5 5 -0.433013 0.25 -0.866025
d 5 5 5 -0 0 1
d 5 5 5 -0.5 4.64686e-14 0.866025
d 5 5 5 -0.866025 8.04859e-14 0.5
d 5 5 5 -1 9.29371e-14 4.64686e-14
d 5 5 5 -0.866025 8.04859e-14 -0.5
d 5 5 5 -0.5 4.64686e-14 -0.866025
d 5 5 5 -0 -0 1
d 5 5 5 -0.433013 -0.25 0.866025
d 5 5 5 -0.75 -0.433013 0.5
d 5 5 5 -0.866025 -0.5 4.64686e-14
d 5 5 5 -0.75 -0.433013 -0.5
d 5 5 5 -0.433013 -0.25 -0.866025
d 5 5 5 -0 -0 1
d 5 5 5 -0.25 -0.433013 0.866025
d 5 5 5 -0.433013 -0.75 0.5
d 5 5 5 -0.5 -0.866025 4.64686e-14
d 5 5 5 -0.433013 -0.75 -0.5
d 5 5 5 -0.25 -0.433013 -0.866025
d 5 5 5 -0 -0 1
d 5 5 5 -6.98139e-14 -0.5 0.866025
d 5 5 5 -1.20921e-13 -0.866025 0.5
d 5 5 5 -1.39628e-13 -1 4.64686e-14
d 5 5 5 -1.20921e-13 -0.866025 -0.5
d 5 5 5 -6.98139e-14 -0.5 -0.866025
d 5 5 5 0 -0 1
d 5 5 5 0.25 -0.433013 0.866025
d 5 5 5 0.433013 -0.75 0.5
d 5 5 5 0.5 -0.866025 4.64686e-14
d 5 5 5 0.433013 -0.75 -0.5
d 5 5 5 0.25 -0.433013 -0.866025
d 5 5 5 0 -0 1
d 5 5 5 0.433013 -0.25 0.866025
d 5 5 5 0.75 -0.433013 0.5
d 5 5 5 0.866025 -0.5 4.64686e-14
d 5 5 5 0.75 -0.433013 -0.5
d 5 5 5 0.433013 -0.25 -0.866025
