99
Liquid Crystals with Colloide in temperature=1.8, and potential=-1.09743e-22
Sp 2.42797 1.44817 1.53582 -0.914245 -0.269136 0.302857
Sp 0.644075 0.510603 -0.220192 0.316077 -0.0367391 -0.948022
Sp 2.17561 0.153902 1.41707 0.937795 0.347139 -0.00592622
Sp 0.426219 1.65423 0.975023 0.576071 0.816119 -0.045748
Sp 0.576562 1.49229 -0.455485 0.6128 -0.684092 -0.395593
Sp 0.0513613 1.92028 1.65237 0.48418 0.219204 -0.847065
Sp -0.489569 0.555929 1.59749 -0.315173 0.618753 0.71959
Sp 1.28608 1.37904 0.121705 -0.263479 0.550302 0.792304
Sp 2.0171 0.460999 0.402691 -0.0228512 0.992944 -0.116366
Sp -0.0169621 2.07636 2.03071 0.975886 0.16001 -0.148471
Sp 1.4868 0.244197 1.21892 0.240679 0.96631 -0.0912077
Sp 0.337837 0.695356 2.34139 0.766911 -0.562765 0.308452
Sp 2.34465 1.32241 1.50061 -0.0792686 0.939101 0.334373
Sp 1.08322 1.87358 1.13407 -0.280798 0.251375 0.926263
Sp 0.0863052 0.842991 0.233289 -0.879592 -0.474346 0.0362535
Sp 1.80122 0.595377 2.27808 -0.191808 0.920747 0.339756
Sp 1.45263 0.660139 -0.075322 -0.840984 0.471127 -0.266054
Sp 0.252285 1.19295 0.076358 0.655176 0.712382 -0.251508
Sp 0.288659 2.13825 0.47304 -0.816202 0.00120844 -0.577766
Sp 1.18512 1.24901 -0.0435781 0.331297 0.639874 0.6934
Sp -0.104244 1.39789 1.33746 -0.910841 -0.0536815 -0.409251
Sp 0.232419 -0.447258 1.5317 0.612054 0.501168 0.611735
Sp 0.0245357 -0.0512148 2.14456 -0.400477 -0.640741 0.655034
Sp 0.93957 0.698488 2.05813 0.00800379 -0.306812 -0.951736
Sp -0.213071 -0.221541 2.0641 -0.46685 0.541392 -0.699247
Sp 1.59208 0.618512 0.023852 0.256557 -0.936576 0.238754
Sp 0.402343 0.497438 0.240112 0.364009 0.536395 0.761432
d 5 5 5 0 0 1
d 5 5 5 0.5 0 0.866025
d 5 5 5 0.866025 0 0.5
d 5 5 5 1 0 4.64686e-14
d 5 5 5 0.866025 0 -0.5
d 5 5 5 0.5 0 -0.866025
d 5 5 5 0 0 1
d 5 5 5 0.433013 0.25 0.866025
d 5 5 5 0.75 0.433013 0.5
d 5 5 5 0.866025 0.5 4.64686e-14
d 5 5 5 0.75 0.433013 -0.5
d 5 5 5 0.433013 0.25 -0.866025
d 5 5 5 0 0 1
d 5 5 5 0.25 0.433013 0.866025
d 5 5 5 0.433013 0.75 0.5
d 5 5 5 0.5 0.866025 4.64686e-14
d 5 5 5 0.433013 0.75 -0.5
d 5 5 5 0.25 0.433013 -0.866025
d 5 5 5 0 0 1
d 5 5 5 2.32343e-14 0.5 0.866025
d 5 5 5 4.02429e-14 0.866025 0.5
d 5 5 5 4.64686e-14 1 4.64686e-14
d 5 5 5 4.02429e-14 0.866025 -0.5
d 5 5 5 2.32343e-14 0.5 -0.866025
d 5 5 5 -0 0 1
d 5 5 5 -0.25 0.433013 0.866025
d 5 5 5 -0.433013 0.75 0.5
d 5 5 5 -0.5 0.866025 4.64686e-14
d 5 5 5 -0.433013 0.75 -0.5
d 5 5 5 -0.25 0.433013 -0.866025
d 5 5 5 -0 0 1
d 5 5 5 -0.433013 0.25 0.866025
d 5 5 5 -0.75 0.433013 0.5
d 5 5 5 -0.866025 0.5 4.64686e-14
d 5 5 5 -0.75 0.433013 -0.5
d 5 5 5 -0.433013 0.25 -0.866025
d 5 5 5 -0 0 1
d 5 5 5 -0.5 4.64686e-14 0.866025
d 5 5 5 -0.866025 8.04859e-14 0.5
d 5 5 5 -1 9.29371e-14 4.64686e-14
d 5 5 5 -0.866025 8.04859e-14 -0.5
d 5 5 5 -0.5 4.64686e-14 -0.866025
d 5 5 5 -0 -0 1
d 5 5 5 -0.433013 -0.25 0.866025
d 5 5 5 -0.75 -0.433013 0.5
d 5 5 5 -0.866025 -0.5 4.64686e-14
d 5 5 5 -0.75 -0.433013 -0.5
d 5 5 5 -0.433013 -0.25 -0.866025
d 5 5 5 -0 -0 1
d 5 5 5 -0.25 -0.433013 0.866025
d 5 5 5 -0.433013 -0.75 0.5
d 5 5 5 -0.5 -0.866025 4.64686e-14
d 5 5 5 -0.433013 -0.75 -0.5
d 5 5 5 -0.25 -0.433013 -0.866025
d 5 5 5 -0 -0 1
d 5 5 5 -6.98139e-14 -0.5 0.866025
d 5 5 5 -1.20921e-13 -0.866025 0.5
d 5 5 5 -1.39628e-13 -1 4.64686e-14
d 5 5 5 -1.20921e-13 -0.866025 -0.5
d 5 5 5 -6.98139e-14 -0.5 -0.866025
d 5 5 5 0 -0 1
d 5 5 5 0.25 -0.433013 0.866025
d 5 5 5 0.433013 -0.75 0.5
d 5 5 5 0.5 -0.866025 4.64686e-14
d 5 5 5 0.433013 -0.75 -0.5
d 5 5 5 0.25 -0.433013 -0.866025
d 5 5 5 0 -0 1
d 5 5 5 0.433013 -0.25 0.866025
d 5 5 5 0.75 -0.433013 0.5
d 5 5 5 0.866025 -0.5 4.64686e-14
d 5 5 5 0.75 -0.433013 -0.5
d 5 5 5 0.433013 -0.25 -0.866025
