99
Liquid Crystals with Colloide in temperature=1.2, and potential=-3.16029e-23
Sp 2.42797 1.44817 1.53582 -0.914245 -0.269136 0.302857
Sp 0.886497 0.431051 -0.28117 0.368267 -0.0646558 -0.927469
Sp -0.0498579 2.21068 1.93415 0.745458 0.658316 0.104462
Sp 0.224724 0.669384 1.59203 0.634894 0.762941 0.121782
Sp 0.321644 0.470603 0.611626 0.506029 -0.859283 -0.0746133
Sp -0.418491 2.0281 1.77198 0.409465 0.25941 -0.874669
Sp 0.302211 0.621838 0.138901 -0.0771961 0.502413 0.861175
Sp 1.50133 1.82492 -0.0696549 -0.20042 0.654238 0.729249
Sp -0.272892 -0.266498 1.53921 0.146067 0.970451 0.192068
Sp -0.294678 1.39373 1.2442 0.933025 -0.00795571 -0.359724
Sp 1.08174 0.127685 0.293286 0.134709 0.94419 -0.300599
Sp -0.128646 0.844329 1.12122 0.773227 -0.629746 0.0744396
Sp 2.26949 1.27783 1.5382 -0.0989787 0.933029 0.345919
Sp 1.08322 1.87358 1.13407 -0.280798 0.251375 0.926263
Sp -0.00227132 1.06697 0.190627 -0.901226 -0.433149 0.0131795
Sp 2.086 0.211159 1.94632 -0.144356 0.945154 0.292995
Sp 1.62002 0.278673 1.60436 -0.767365 0.335695 -0.546314
Sp 0.260222 2.26208 0.680396 0.425206 0.624874 -0.654777
Sp 2.47931 -0.460467 0.195729 -0.844908 0.0827212 -0.528477
Sp 0.982027 1.73576 -0.330179 0.283765 0.745443 0.603153
Sp -0.245577 0.457083 2.06207 -0.929178 -0.283035 -0.23774
Sp 0.285182 -0.129655 2.02803 0.552717 0.480779 0.680702
Sp 2.08321 -0.218971 1.41221 -0.621844 -0.658308 0.424195
Sp 0.110029 0.58038 -0.0264937 -0.231039 -0.409091 -0.88276
Sp 1.21918 1.58619 0.410311 -0.665586 0.137044 -0.733631
Sp 1.39295 -0.285815 1.76604 0.162675 -0.983268 -0.0819818
Sp 1.25598 0.61996 -0.314042 -0.185173 0.651507 0.735697
d 5 5 5 0 0 1
d 5 5 5 0.5 0 0.866025
d 5 5 5 0.866025 0 0.5
d 5 5 5 1 0 4.64686e-14
d 5 5 5 0.866025 0 -0.5
d 5 5 5 0.5 0 -0.866025
d 5 5 5 0 0 1
d 5 5 5 0.433013 0.25 0.866025
d 5 5 5 0.75 0.433013 0.5
d 5 5 5 0.866025 0.5 4.64686e-14
d 5 5 5 0.75 0.433013 -0.5
d 5 5 5 0.433013 0.25 -0.866025
d 5 5 5 0 0 1
d 5 5 5 0.25 0.433013 0.866025
d 5 5 5 0.433013 0.75 0.5
d 5 5 5 0.5 0.866025 4.64686e-14
d 5 5 5 0.433013 0.75 -0.5
d 5 5 5 0.25 0.433013 -0.866025
d 5 5 5 0 0 1
d 5 5 5 2.32343e-14 0.5 0.866025
d 5 5 5 4.02429e-14 0.866025 0.5
d 5 5 5 4.64686e-14 1 4.64686e-14
d 5 5 5 4.02429e-14 0.866025 -0.5
d 5 5 5 2.32343e-14 0.5 -0.866025
d 5 5 5 -0 0 1
d 5 5 5 -0.25 0.433013 0.866025
d 5 5 5 -0.433013 0.75 0.5
d 5 5 5 -0.5 0.866025 4.64686e-14
d 5 5 5 -0.433013 0.75 -0.5
d 5 5 5 -0.25 0.433013 -0.866025
d 5 5 5 -0 0 1
d 5 5 5 -0.433013 0.25 0.866025
d 5 5 5 -0.75 0.433013 0.5
d 5 5 5 -0.866025 0.5 4.64686e-14
d 5 5 5 -0.75 0.433013 -0.5
d 5 5 5 -0.433013 0.25 -0.866025
d 5 5 5 -0 0 1
d 5 5 5 -0.5 4.64686e-14 0.866025
d 5 5 5 -0.866025 8.04859e-14 0.5
d 5 5 5 -1 9.29371e-14 4.64686e-14
d 5 5 5 -0.866025 8.04859e-14 -0.5
d 5 5 5 -0.5 4.64686e-14 -0.866025
d 5 5 5 -0 -0 1
d 5 5 5 -0.433013 -0.25 0.866025
d 5 5 5 -0.75 -0.433013 0.5
d 5 5 5 -0.866025 -0.5 4.64686e-14
d 5 5 5 -0.75 -0.433013 -0.5
d 5 5 5 -0.433013 -0.25 -0.866025
d 5 5 5 -0 -0 1
d 5 5 5 -0.25 -0.433013 0.866025
d 5 5 5 -0.433013 -0.75 0.5
d 5 5 5 -0.5 -0.866025 4.64686e-14
d 5 5 5 -0.433013 -0.75 -0.5
d 5 5 5 -0.25 -0.433013 -0.866025
d 5 5 5 -0 -0 1
d 5 5 5 -6.98139e-14 -0.5 0.866025
d 5 5 5 -1.20921e-13 -0.866025 0.5
d 5 5 5 -1.39628e-13 -1 4.64686e-14
d 5 5 5 -1.20921e-13 -0.866025 -0.5
d 5 5 5 -6.98139e-14 -0.5 -0.866025
d 5 5 5 0 -0 1
d 5 5 5 0.25 -0.433013 0.866025
d 5 5 5 0.433013 -0.75 0.5
d 5 5 5 0.5 -0.866025 4.64686e-14
d 5 5 5 0.433013 -0.75 -0.5
d 5 5 5 0.25 -0.433013 -0.866025
d 5 5 5 0 -0 1
d 5 5 5 0.433013 -0.25 0.866025
d 5 5 5 0.75 -0.433013 0.5
d 5 5 5 0.866025 -0.5 4.64686e-14
d 5 5 5 0.75 -0.433013 -0.5
d 5 5 5 0.433013 -0.25 -0.866025
