99
Liquid Crystals with Colloide in temperature=2.4, and potential=-4.75027e-23
Sp 2.41366 1.38684 2.20668 -0.858774 -0.273941 0.432971
Sp 0.362627 2.1062 1.00472 0.319171 0.431228 -0.843903
Sp 0.286326 0.228683 1.58213 0.860838 0.507376 0.0390841
Sp 0.48217 0.139976 0.659459 0.440436 0.893049 -0.0920892
Sp 0.177275 1.15688 0.601786 0.553365 -0.818435 -0.154761
Sp 0.866262 1.12808 0.0938294 0.804756 0.0543793 -0.591109
Sp 0.485683 1.05527 0.774366 -0.130728 0.825368 0.549253
Sp 1.37011 0.6805 0.261746 -0.260978 0.419566 0.869399
Sp -0.106053 1.94047 0.971077 0.224332 0.974339 -0.0183815
Sp 0.856413 1.37979 -0.196119 0.997747 0.0670873 -0.000297737
Sp 1.25472 0.303144 0.850131 0.176982 0.966037 -0.18828
Sp 2.33391 0.807382 -0.0406025 0.605011 -0.612759 0.508418
Sp 1.70044 1.04852 1.62736 -0.239893 0.895529 0.374805
Sp 1.08322 1.87358 1.13407 -0.280798 0.251375 0.926263
Sp 0.524537 -0.0714908 0.437808 -0.740359 -0.667648 0.0781927
Sp -0.320659 0.414571 2.34786 0.0354787 0.925907 0.376081
Sp 0.471312 1.90848 -0.376604 -0.95158 -0.00405605 -0.307374
Sp 1.61692 0.306827 1.14701 0.540634 0.836804 -0.086453
Sp 2.11944 -0.490725 1.12368 -0.935808 0.0691626 -0.345659
Sp 0.729569 1.27495 -0.283086 0.21986 0.686787 0.69281
Sp 0.524674 1.48833 -0.495633 -0.977969 -0.054262 -0.201575
Sp 0.579571 -0.122189 1.63665 0.631843 0.52612 0.569185
Sp -0.045648 2.48035 2.25251 -0.381934 -0.692809 0.611671
Sp 2.32652 0.0804314 1.18213 0.309894 -0.34057 -0.887681
Sp 1.63647 0.175149 2.13257 -0.045622 0.677441 -0.734161
Sp -0.240959 2.4598 -0.0493548 0.651929 -0.697607 0.297207
Sp 0.495576 -0.311731 0.956971 0.354401 0.284463 0.890775
d 5 5 5 0 0 1
d 5 5 5 0.5 0 0.866025
d 5 5 5 0.866025 0 0.5
d 5 5 5 1 0 4.64686e-14
d 5 5 5 0.866025 0 -0.5
d 5 5 5 0.5 0 -0.866025
d 5 5 5 0 0 1
d 5 5 5 0.433013 0.25 0.866025
d 5 5 5 0.75 0.433013 0.5
d 5 5 5 0.866025 0.5 4.64686e-14
d 5 5 5 0.75 0.433013 -0.5
d 5 5 5 0.433013 0.25 -0.866025
d 5 5 5 0 0 1
d 5 5 5 0.25 0.433013 0.866025
d 5 5 5 0.433013 0.75 0.5
d 5 5 5 0.5 0.866025 4.64686e-14
d 5 5 5 0.433013 0.75 -0.5
d 5 5 5 0.25 0.433013 -0.866025
d 5 5 5 0 0 1
d 5 5 5 2.32343e-14 0.5 0.866025
d 5 5 5 4.02429e-14 0.866025 0.5
d 5 5 5 4.64686e-14 1 4.64686e-14
d 5 5 5 4.02429e-14 0.866025 -0.5
d 5 5 5 2.32343e-14 0.5 -0.866025
d 5 5 5 -0 0 1
d 5 5 5 -0.25 0.433013 0.866025
d 5 5 5 -0.433013 0.75 0.5
d 5 5 5 -0.5 0.866025 4.64686e-14
d 5 5 5 -0.433013 0.75 -0.5
d 5 5 5 -0.25 0.433013 -0.866025
d 5 5 5 -0 0 1
d 5 5 5 -0.433013 0.25 0.866025
d 5 5 5 -0.75 0.433013 0.5
d 5 5 5 -0.866025 0.5 4.64686e-14
d 5 5 5 -0.75 0.433013 -0.5
d 5 5 5 -0.433013 0.25 -0.866025
d 5 5 5 -0 0 1
d 5 5 5 -0.5 4.64686e-14 0.866025
d 5 5 5 -0.866025 8.04859e-14 0.5
d 5 5 5 -1 9.29371e-14 4.64686e-14
d 5 5 5 -0.866025 8.04859e-14 -0.5
d 5 5 5 -0.5 4.64686e-14 -0.866025
d 5 5 5 -0 -0 1
d 5 5 5 -0.433013 -0.25 0.866025
d 5 5 5 -0.75 -0.433013 0.5
d 5 5 5 -0.866025 -0.5 4.64686e-14
d 5 5 5 -0.75 -0.433013 -0.5
d 5 5 5 -0.433013 -0.25 -0.866025
d 5 5 5 -0 -0 1
d 5 5 5 -0.25 -0.433013 0.866025
d 5 5 5 -0.433013 -0.75 0.5
d 5 5 5 -0.5 -0.866025 4.64686e-14
d 5 5 5 -0.433013 -0.75 -0.5
d 5 5 5 -0.25 -0.433013 -0.866025
d 5 5 5 -0 -0 1
d 5 5 5 -6.98139e-14 -0.5 0.866025
d 5 5 5 -1.20921e-13 -0.866025 0.5
d 5 5 5 -1.39628e-13 -1 4.64686e-14
d 5 5 5 -1.20921e-13 -0.866025 -0.5
d 5 5 5 -6.98139e-14 -0.5 -0.866025
d 5 5 5 0 -0 1
d 5 5 5 0.25 -0.433013 0.866025
d 5 5 5 0.433013 -0.75 0.5
d 5 5 5 0.5 -0.866025 4.64686e-14
d 5 5 5 0.433013 -0.75 -0.5
d 5 5 5 0.25 -0.433013 -0.866025
d 5 5 5 0 -0 1
d 5 5 5 0.433013 -0.25 0.866025
d 5 5 5 0.75 -0.433013 0.5
d 5 5 5 0.866025 -0.5 4.64686e-14
d 5 5 5 0.75 -0.433013 -0.5
d 5 5 5 0.433013 -0.25 -0.866025
