99
Liquid Crystals with Colloide in temperature=1.5, and potential=-4.96266e-23
Sp 2.42797 1.44817 1.53582 -0.914245 -0.269136 0.302857
Sp 0.371963 0.563876 -0.21577 0.25633 -0.0273445 -0.966202
Sp -0.09748 0.76799 1.69785 0.910281 0.409776 0.0589211
Sp -0.306945 1.38295 1.22554 0.467474 0.883712 0.0228494
Sp -0.103525 0.556 -0.0127027 0.415619 -0.87239 -0.257288
Sp -0.0868094 1.84407 2.01895 0.502405 0.220387 -0.836074
Sp -0.0777084 0.613073 2.46032 -0.189393 0.565108 0.802984
Sp 1.54763 1.59798 -0.364579 -0.207825 0.65903 0.722833
Sp 1.42176 0.32733 1.5882 -0.17188 0.968672 0.179255
Sp -0.351948 1.98875 2.04006 0.974781 0.158657 -0.156938
Sp 1.24921 0.143314 0.699138 0.18592 0.958891 -0.214385
Sp -0.234367 1.29194 1.62291 0.803229 -0.559841 0.203475
Sp 2.24882 1.46326 1.60871 -0.0992128 0.932864 0.346297
Sp 1.08322 1.87358 1.13407 -0.280798 0.251375 0.926263
Sp 0.614554 0.937537 0.0867909 -0.85496 -0.518683 -0.0034423
Sp 1.80122 0.595377 2.27808 -0.191808 0.920747 0.339756
Sp 1.15708 0.133938 1.81556 -0.826027 0.296248 -0.479496
Sp -0.161318 2.27193 1.542 0.399988 0.74709 -0.530911
Sp -0.177965 2.48899 0.478193 -0.856097 0.0721382 -0.511755
Sp 1.9843 1.1349 -0.337516 0.529964 0.595228 0.604021
Sp -0.0406388 0.591239 1.14149 -0.864093 -0.239508 -0.442695
Sp 0.479305 -0.418063 1.25735 0.671284 0.506561 0.541085
Sp -0.435468 0.243214 2.15234 -0.509919 -0.563838 0.649668
Sp 1.1901 0.45612 2.02305 0.0685746 -0.356427 -0.931803
Sp 0.51782 2.0589 0.442504 -0.21705 0.297027 -0.929873
Sp 1.70078 -0.30125 1.4727 0.224525 -0.962925 -0.149547
Sp 0.191975 0.18866 0.492402 0.311857 0.459205 0.831791
d 5 5 5 0 0 1
d 5 5 5 0.5 0 0.866025
d 5 5 5 0.866025 0 0.5
d 5 5 5 1 0 4.64686e-14
d 5 5 5 0.866025 0 -0.5
d 5 5 5 0.5 0 -0.866025
d 5 5 5 0 0 1
d 5 5 5 0.433013 0.25 0.866025
d 5 5 5 0.75 0.433013 0.5
d 5 5 5 0.866025 0.5 4.64686e-14
d 5 5 5 0.75 0.433013 -0.5
d 5 5 5 0.433013 0.25 -0.866025
d 5 5 5 0 0 1
d 5 5 5 0.25 0.433013 0.866025
d 5 5 5 0.433013 0.75 0.5
d 5 5 5 0.5 0.866025 4.64686e-14
d 5 5 5 0.433013 0.75 -0.5
d 5 5 5 0.25 0.433013 -0.866025
d 5 5 5 0 0 1
d 5 5 5 2.32343e-14 0.5 0.866025
d 5 5 5 4.02429e-14 0.866025 0.5
d 5 5 5 4.64686e-14 1 4.64686e-14
d 5 5 5 4.02429e-14 0.866025 -0.5
d 5 5 5 2.32343e-14 0.5 -0.866025
d 5 5 5 -0 0 1
d 5 5 5 -0.25 0.433013 0.866025
d 5 5 5 -0.433013 0.75 0.5
d 5 5 5 -0.5 0.866025 4.64686e-14
d 5 5 5 -0.433013 0.75 -0.5
d 5 5 5 -0.25 0.433013 -0.866025
d 5 5 5 -0 0 1
d 5 5 5 -0.433013 0.25 0.866025
d 5 5 5 -0.75 0.433013 0.5
d 5 5 5 -0.866025 0.5 4.64686e-14
d 5 5 5 -0.75 0.433013 -0.5
d 5 5 5 -0.433013 0.25 -0.866025
d 5 5 5 -0 0 1
d 5 5 5 -0.5 4.64686e-14 0.866025
d 5 5 5 -0.866025 8.04859e-14 0.5
d 5 5 5 -1 9.29371e-14 4.64686e-14
d 5 5 5 -0.866025 8.04859e-14 -0.5
d 5 5 5 -0.5 4.64686e-14 -0.866025
d 5 5 5 -0 -0 1
d 5 5 5 -0.433013 -0.25 0.866025
d 5 5 5 -0.75 -0.433013 0.5
d 5 5 5 -0.866025 -0.5 4.64686e-14
d 5 5 5 -0.75 -0.433013 -0.5
d 5 5 5 -0.433013 -0.25 -0.866025
d 5 5 5 -0 -0 1
d 5 5 5 -0.25 -0.433013 0.866025
d 5 5 5 -0.433013 -0.75 0.5
d 5 5 5 -0.5 -0.866025 4.64686e-14
d 5 5 5 -0.433013 -0.75 -0.5
d 5 5 5 -0.25 -0.433013 -0.866025
d 5 5 5 -0 -0 1
d 5 5 5 -6.98139e-14 -0.5 0.866025
d 5 5 5 -1.20921e-13 -0.866025 0.5
d 5 5 5 -1.39628e-13 -1 4.64686e-14
d 5 5 5 -1.20921e-13 -0.866025 -0.5
d 5 5 5 -6.98139e-14 -0.5 -0.866025
d 5 5 5 0 -0 1
d 5 5 5 0.25 -0.433013 0.866025
d 5 5 5 0.433013 -0.75 0.5
d 5 5 5 0.5 -0.866025 4.64686e-14
d 5 5 5 0.433013 -0.75 -0.5
d 5 5 5 0.25 -0.433013 -0.866025
d 5 5 5 0 -0 1
d 5 5 5 0.433013 -0.25 0.866025
d 5 5 5 0.75 -0.433013 0.5
d 5 5 5 0.866025 -0.5 4.64686e-14
d 5 5 5 0.75 -0.433013 -0.5
d 5 5 5 0.433013 -0.25 -0.866025
