99
Liquid Crystals with Colloide in temperature=0.5, and potential=-8.97047e-23
Sp 2.20075 1.57246 1.37614 -0.939244 -0.229539 0.255209
Sp 1.68142 -0.180916 0.127253 0.357505 -0.0807718 -0.930412
Sp 0.395938 1.17101 1.80915 0.902297 0.421627 0.0899503
Sp 2.04049 0.707679 0.493781 0.432043 0.864722 -0.256115
Sp -0.223644 0.719605 0.377915 0.884567 -0.464917 -0.0373301
Sp -0.304299 -0.176198 -0.35653 0.458187 0.503555 -0.73246
Sp 0.127864 1.75189 -0.235343 -0.131566 0.686319 0.715302
Sp -0.324786 0.196383 -0.337738 -0.0160648 0.968488 0.248541
Sp 0.473807 1.37458 -0.108914 0.384292 0.913187 -0.135679
Sp 0.483366 -0.253223 0.861961 0.892303 0.275119 -0.357917
Sp 1.11413 0.0337438 1.40956 0.127431 0.991227 -0.0350625
Sp 1.92701 0.446775 1.60226 0.551062 -0.798945 0.240869
Sp 0.10243 0.925077 2.07245 0.118972 0.851472 0.510726
Sp 1.08 2.48665 2.25026 -0.223387 0.318207 0.921327
Sp 0.115541 -0.38796 1.32761 -0.951807 -0.0483316 0.302867
Sp 1.32473 2.39255 -0.126673 -0.479486 0.301525 0.824121
Sp 2.24037 0.618153 0.174618 -0.806626 0.53152 -0.258538
Sp 1.09763 2.38145 0.373193 0.557193 0.559246 -0.613824
Sp -0.327391 1.5066 1.77268 -0.658143 -0.151971 -0.737396
Sp -0.354563 0.0371464 0.268195 0.465976 0.725472 0.506514
Sp 1.24417 0.133052 0.9535 -0.612326 -0.426786 -0.665515
Sp 1.96571 0.168824 -0.32042 0.232503 0.527794 0.816931
Sp -0.0501055 2.07437 1.79246 -0.379936 -0.784169 0.49064
Sp 0.837526 1.94965 0.249335 -0.621523 -0.56998 -0.537432
Sp 2.05854 2.04136 2.27333 -0.343527 0.230177 -0.910499
Sp 1.71814 0.893459 0.137054 0.188061 -0.937743 -0.292012
Sp 0.415803 0.981774 1.42714 0.300064 0.806095 0.510072
d 5 5 5 0 0 1
d 5 5 5 0.5 0 0.866025
d 5 5 5 0.866025 0 0.5
d 5 5 5 1 0 4.64686e-14
d 5 5 5 0.866025 0 -0.5
d 5 5 5 0.5 0 -0.866025
d 5 5 5 0 0 1
d 5 5 5 0.433013 0.25 0.866025
d 5 5 5 0.75 0.433013 0.5
d 5 5 5 0.866025 0.5 4.64686e-14
d 5 5 5 0.75 0.433013 -0.5
d 5 5 5 0.433013 0.25 -0.866025
d 5 5 5 0 0 1
d 5 5 5 0.25 0.433013 0.866025
d 5 5 5 0.433013 0.75 0.5
d 5 5 5 0.5 0.866025 4.64686e-14
d 5 5 5 0.433013 0.75 -0.5
d 5 5 5 0.25 0.433013 -0.866025
d 5 5 5 0 0 1
d 5 5 5 2.32343e-14 0.5 0.866025
d 5 5 5 4.02429e-14 0.866025 0.5
d 5 5 5 4.64686e-14 1 4.64686e-14
d 5 5 5 4.02429e-14 0.866025 -0.5
d 5 5 5 2.32343e-14 0.5 -0.866025
d 5 5 5 -0 0 1
d 5 5 5 -0.25 0.433013 0.866025
d 5 5 5 -0.433013 0.75 0.5
d 5 5 5 -0.5 0.866025 4.64686e-14
d 5 5 5 -0.433013 0.75 -0.5
d 5 5 5 -0.25 0.433013 -0.866025
d 5 5 5 -0 0 1
d 5 5 5 -0.433013 0.25 0.866025
d 5 5 5 -0.75 0.433013 0.5
d 5 5 5 -0.866025 0.5 4.64686e-14
d 5 5 5 -0.75 0.433013 -0.5
d 5 5 5 -0.433013 0.25 -0.866025
d 5 5 5 -0 0 1
d 5 5 5 -0.5 4.64686e-14 0.866025
d 5 5 5 -0.866025 8.04859e-14 0.5
d 5 5 5 -1 9.29371e-14 4.64686e-14
d 5 5 5 -0.866025 8.04859e-14 -0.5
d 5 5 5 -0.5 4.64686e-14 -0.866025
d 5 5 5 -0 -0 1
d 5 5 5 -0.433013 -0.25 0.866025
d 5 5 5 -0.75 -0.433013 0.5
d 5 5 5 -0.866025 -0.5 4.64686e-14
d 5 5 5 -0.75 -0.433013 -0.5
d 5 5 5 -0.433013 -0.25 -0.866025
d 5 5 5 -0 -0 1
d 5 5 5 -0.25 -0.433013 0.866025
d 5 5 5 -0.433013 -0.75 0.5
d 5 5 5 -0.5 -0.866025 4.64686e-14
d 5 5 5 -0.433013 -0.75 -0.5
d 5 5 5 -0.25 -0.433013 -0.866025
d 5 5 5 -0 -0 1
d 5 5 5 -6.98139e-14 -0.5 0.866025
d 5 5 5 -1.20921e-13 -0.866025 0.5
d 5 5 5 -1.39628e-13 -1 4.64686e-14
d 5 5 5 -1.20921e-13 -0.866025 -0.5
d 5 5 5 -6.98139e-14 -0.5 -0.866025
d 5 5 5 0 -0 1
d 5 5 5 0.25 -0.433013 0.866025
d 5 5 5 0.433013 -0.75 0.5
d 5 5 5 0.5 -0.866025 4.64686e-14
d 5 5 5 0.433013 -0.75 -0.5
d 5 5 5 0.25 -0.433013 -0.866025
d 5 5 5 0 -0 1
d 5 5 5 0.433013 -0.25 0.866025
d 5 5 5 0.75 -0.433013 0.5
d 5 5 5 0.866025 -0.5 4.64686e-14
d 5 5 5 0.75 -0.433013 -0.5
d 5 5 5 0.433013 -0.25 -0.866025
