99
Liquid Crystals with Colloide in temperature=0.3, and potential=-2.53508e-22
Sp 1.99058 1.3289 1.03942 -0.947325 -0.27225 0.168689
Sp 1.2536 0.381287 0.95734 0.325261 0.0459866 -0.944506
Sp 0.395938 1.17101 1.80915 0.902297 0.421627 0.0899503
Sp 2.23377 0.252066 -0.38447 0.449508 0.731283 -0.512999
Sp 0.355418 1.95453 1.14826 0.976229 -0.164569 0.141049
Sp 2.20195 0.956482 2.28401 0.263943 0.659156 -0.704164
Sp 1.39728 2.15272 -0.242213 0.256336 0.73031 0.633198
Sp 0.5254 0.553294 2.4598 0.187187 0.966399 0.176162
Sp 1.39952 -0.323784 2.10195 0.416785 0.866542 -0.274582
Sp 0.352217 1.97205 1.45877 0.965996 0.0950852 -0.24044
Sp 1.46116 0.121504 1.70527 0.212736 0.976345 0.0386559
Sp 2.19177 0.284245 -0.00642043 0.568392 -0.801761 -0.184687
Sp 0.0146082 2.12232 -0.246494 0.0758803 0.865539 0.49506
Sp 1.12705 2.4163 2.25789 -0.212957 0.302514 0.929051
Sp -0.234275 2.20948 0.951337 -0.972074 -0.141881 0.18693
Sp -0.299499 1.33191 0.289876 -0.0632012 0.654389 0.753512
Sp 1.31455 0.480436 0.610629 -0.909025 0.401431 -0.111918
Sp 1.40482 2.46457 0.474255 0.351251 0.271809 -0.895959
Sp -0.167699 0.767282 0.783617 -0.500708 -0.298335 -0.812581
Sp 2.10695 1.59156 0.16133 0.287952 0.889121 0.355735
Sp 1.33225 -0.142853 1.99012 0.0946367 -0.382721 -0.919004
Sp 2.42222 0.224354 0.416405 -0.369014 0.426018 0.826037
Sp 0.0521421 1.83223 2.00597 -0.334207 -0.781146 0.527367
Sp 1.32298 1.41331 -0.453 -0.436907 -0.625008 -0.646899
Sp 2.21879 2.1608 1.79564 -0.272063 0.234143 -0.933359
Sp -0.13145 0.188921 -0.171886 0.389981 -0.874383 -0.288736
Sp 0.415803 0.981774 1.42714 0.300064 0.806095 0.510072
d 5 5 5 0 0 1
d 5 5 5 0.5 0 0.866025
d 5 5 5 0.866025 0 0.5
d 5 5 5 1 0 4.64686e-14
d 5 5 5 0.866025 0 -0.5
d 5 5 5 0.5 0 -0.866025
d 5 5 5 0 0 1
d 5 5 5 0.433013 0.25 0.866025
d 5 5 5 0.75 0.433013 0.5
d 5 5 5 0.866025 0.5 4.64686e-14
d 5 5 5 0.75 0.433013 -0.5
d 5 5 5 0.433013 0.25 -0.866025
d 5 5 5 0 0 1
d 5 5 5 0.25 0.433013 0.866025
d 5 5 5 0.433013 0.75 0.5
d 5 5 5 0.5 0.866025 4.64686e-14
d 5 5 5 0.433013 0.75 -0.5
d 5 5 5 0.25 0.433013 -0.866025
d 5 5 5 0 0 1
d 5 5 5 2.32343e-14 0.5 0.866025
d 5 5 5 4.02429e-14 0.866025 0.5
d 5 5 5 4.64686e-14 1 4.64686e-14
d 5 5 5 4.02429e-14 0.866025 -0.5
d 5 5 5 2.32343e-14 0.5 -0.866025
d 5 5 5 -0 0 1
d 5 5 5 -0.25 0.433013 0.866025
d 5 5 5 -0.433013 0.75 0.5
d 5 5 5 -0.5 0.866025 4.64686e-14
d 5 5 5 -0.433013 0.75 -0.5
d 5 5 5 -0.25 0.433013 -0.866025
d 5 5 5 -0 0 1
d 5 5 5 -0.433013 0.25 0.866025
d 5 5 5 -0.75 0.433013 0.5
d 5 5 5 -0.866025 0.5 4.64686e-14
d 5 5 5 -0.75 0.433013 -0.5
d 5 5 5 -0.433013 0.25 -0.866025
d 5 5 5 -0 0 1
d 5 5 5 -0.5 4.64686e-14 0.866025
d 5 5 5 -0.866025 8.04859e-14 0.5
d 5 5 5 -1 9.29371e-14 4.64686e-14
d 5 5 5 -0.866025 8.04859e-14 -0.5
d 5 5 5 -0.5 4.64686e-14 -0.866025
d 5 5 5 -0 -0 1
d 5 5 5 -0.433013 -0.25 0.866025
d 5 5 5 -0.75 -0.433013 0.5
d 5 5 5 -0.866025 -0.5 4.64686e-14
d 5 5 5 -0.75 -0.433013 -0.5
d 5 5 5 -0.433013 -0.25 -0.866025
d 5 5 5 -0 -0 1
d 5 5 5 -0.25 -0.433013 0.866025
d 5 5 5 -0.433013 -0.75 0.5
d 5 5 5 -0.5 -0.866025 4.64686e-14
d 5 5 5 -0.433013 -0.75 -0.5
d 5 5 5 -0.25 -0.433013 -0.866025
d 5 5 5 -0 -0 1
d 5 5 5 -6.98139e-14 -0.5 0.866025
d 5 5 5 -1.20921e-13 -0.866025 0.5
d 5 5 5 -1.39628e-13 -1 4.64686e-14
d 5 5 5 -1.20921e-13 -0.866025 -0.5
d 5 5 5 -6.98139e-14 -0.5 -0.866025
d 5 5 5 0 -0 1
d 5 5 5 0.25 -0.433013 0.866025
d 5 5 5 0.433013 -0.75 0.5
d 5 5 5 0.5 -0.866025 4.64686e-14
d 5 5 5 0.433013 -0.75 -0.5
d 5 5 5 0.25 -0.433013 -0.866025
d 5 5 5 0 -0 1
d 5 5 5 0.433013 -0.25 0.866025
d 5 5 5 0.75 -0.433013 0.5
d 5 5 5 0.866025 -0.5 4.64686e-14
d 5 5 5 0.75 -0.433013 -0.5
d 5 5 5 0.433013 -0.25 -0.866025
