99
Liquid Crystals with Colloide in temperature=1.1, and potential=-3.8639e-23
Sp 2.29219 1.53702 1.63037 -0.918095 -0.239088 0.31613
Sp 0.827327 0.125187 2.4237 0.329872 -0.131867 -0.93477
Sp 0.121182 -0.487017 1.75784 0.726902 0.684799 0.0516088
Sp 0.340363 0.608876 1.4288 0.661703 0.7453 0.0817103
Sp -0.056513 0.643594 0.435763 0.452458 -0.882498 -0.128366
Sp -0.197814 -0.356443 1.84354 0.438872 0.393829 -0.807645
Sp 0.0838848 0.519916 0.075917 -0.133224 0.487773 0.862745
Sp 2.06878 1.66208 -0.0914341 -0.0677524 0.646696 0.759733
Sp 2.45465 -0.263634 1.6979 0.0754719 0.968724 0.236385
Sp -0.294678 1.39373 1.2442 0.933025 -0.00795571 -0.359724
Sp 1.00064 0.196704 0.692974 0.118294 0.971557 -0.205143
Sp -0.148161 0.579226 1.21984 0.737257 -0.669314 0.0920384
Sp 2.26949 1.27783 1.5382 -0.0989787 0.933029 0.345919
Sp 1.08322 1.87358 1.13407 -0.280798 0.251375 0.926263
Sp -0.26012 1.10775 0.764027 -0.905741 -0.398105 0.145417
Sp 2.36654 0.0392309 2.18703 -0.0763856 0.928471 0.363466
Sp 1.74695 0.234552 1.6187 -0.758295 0.334667 -0.559451
Sp 0.669719 1.92319 0.430114 0.502401 0.519721 -0.691002
Sp -0.488824 2.06277 -0.255029 -0.794677 -0.0330058 -0.606134
Sp 1.05299 1.93416 -0.393036 0.291771 0.769338 0.56832
Sp -0.383124 0.630488 2.17884 -0.949136 -0.237976 -0.206173
Sp 0.403785 -0.420302 1.71976 0.619996 0.437806 0.651099
Sp 1.94033 0.0491462 1.40466 -0.669993 -0.60356 0.432232
Sp 0.291513 0.609855 0.549745 -0.215278 -0.465487 -0.858474
Sp 0.851118 1.30931 0.338221 -0.710746 0.0619123 -0.700719
Sp -0.0268052 0.870455 1.91953 -0.189796 -0.980118 -0.0578526
Sp 1.20589 0.393776 2.33529 -0.217846 0.659533 0.719416
d 5 5 5 0 0 1
d 5 5 5 0.5 0 0.866025
d 5 5 5 0.866025 0 0.5
d 5 5 5 1 0 4.64686e-14
d 5 5 5 0.866025 0 -0.5
d 5 5 5 0.5 0 -0.866025
d 5 5 5 0 0 1
d 5 5 5 0.433013 0.25 0.866025
d 5 5 5 0.75 0.433013 0.5
d 5 5 5 0.866025 0.5 4.64686e-14
d 5 5 5 0.75 0.433013 -0.5
d 5 5 5 0.433013 0.25 -0.866025
d 5 5 5 0 0 1
d 5 5 5 0.25 0.433013 0.866025
d 5 5 5 0.433013 0.75 0.5
d 5 5 5 0.5 0.866025 4.64686e-14
d 5 5 5 0.433013 0.75 -0.5
d 5 5 5 0.25 0.433013 -0.866025
d 5 5 5 0 0 1
d 5 5 5 2.32343e-14 0.5 0.866025
d 5 5 5 4.02429e-14 0.866025 0.5
d 5 5 5 4.64686e-14 1 4.64686e-14
d 5 5 5 4.02429e-14 0.866025 -0.5
d 5 5 5 2.32343e-14 0.5 -0.866025
d 5 5 5 -0 0 1
d 5 5 5 -0.25 0.433013 0.866025
d 5 5 5 -0.433013 0.75 0.5
d 5 5 5 -0.5 0.866025 4.64686e-14
d 5 5 5 -0.433013 0.75 -0.5
d 5 5 5 -0.25 0.433013 -0.866025
d 5 5 5 -0 0 1
d 5 5 5 -0.433013 0.25 0.866025
d 5 5 5 -0.75 0.433013 0.5
d 5 5 5 -0.866025 0.5 4.64686e-14
d 5 5 5 -0.75 0.433013 -0.5
d 5 5 5 -0.433013 0.25 -0.866025
d 5 5 5 -0 0 1
d 5 5 5 -0.5 4.64686e-14 0.866025
d 5 5 5 -0.866025 8.04859e-14 0.5
d 5 5 5 -1 9.29371e-14 4.64686e-14
d 5 5 5 -0.866025 8.04859e-14 -0.5
d 5 5 5 -0.5 4.64686e-14 -0.866025
d 5 5 5 -0 -0 1
d 5 5 5 -0.433013 -0.25 0.866025
d 5 5 5 -0.75 -0.433013 0.5
d 5 5 5 -0.866025 -0.5 4.64686e-14
d 5 5 5 -0.75 -0.433013 -0.5
d 5 5 5 -0.433013 -0.25 -0.866025
d 5 5 5 -0 -0 1
d 5 5 5 -0.25 -0.433013 0.866025
d 5 5 5 -0.433013 -0.75 0.5
d 5 5 5 -0.5 -0.866025 4.64686e-14
d 5 5 5 -0.433013 -0.75 -0.5
d 5 5 5 -0.25 -0.433013 -0.866025
d 5 5 5 -0 -0 1
d 5 5 5 -6.98139e-14 -0.5 0.866025
d 5 5 5 -1.20921e-13 -0.866025 0.5
d 5 5 5 -1.39628e-13 -1 4.64686e-14
d 5 5 5 -1.20921e-13 -0.866025 -0.5
d 5 5 5 -6.98139e-14 -0.5 -0.866025
d 5 5 5 0 -0 1
d 5 5 5 0.25 -0.433013 0.866025
d 5 5 5 0.433013 -0.75 0.5
d 5 5 5 0.5 -0.866025 4.64686e-14
d 5 5 5 0.433013 -0.75 -0.5
d 5 5 5 0.25 -0.433013 -0.866025
d 5 5 5 0 -0 1
d 5 5 5 0.433013 -0.25 0.866025
d 5 5 5 0.75 -0.433013 0.5
d 5 5 5 0.866025 -0.5 4.64686e-14
d 5 5 5 0.75 -0.433013 -0.5
d 5 5 5 0.433013 -0.25 -0.866025
