99
Liquid Crystals with Colloide in temperature=0.7, and potential=-7.97175e-23
Sp 2.49305 1.50292 1.57407 -0.911482 -0.258904 0.319639
Sp 0.996492 -0.13431 2.27718 0.349889 -0.178431 -0.919641
Sp 0.476869 2.3977 1.89766 0.775788 0.625585 0.0824407
Sp 0.0333844 0.235114 0.813703 0.667168 0.734501 -0.124076
Sp 0.994679 0.799429 0.241358 0.678082 -0.717425 -0.159703
Sp 2.04437 2.43728 2.04488 0.289112 0.415855 -0.862252
Sp 0.671462 0.169229 0.11335 -0.00494447 0.399449 0.916742
Sp -0.499489 1.0436 -0.481085 0.00995024 0.936088 0.351624
Sp -0.0459343 1.87636 1.20821 0.234728 0.959884 0.153381
Sp -0.441683 2.02323 1.44571 0.936615 0.152811 -0.31528
Sp 0.799963 0.370685 0.995154 0.0576302 0.990203 -0.127187
Sp 2.23351 0.0758138 0.827884 0.585043 -0.810974 0.00679867
Sp 0.140346 1.52887 2.01354 0.104858 0.904898 0.412511
Sp 1.407 1.96085 1.62117 -0.181754 0.246475 0.951954
Sp -0.241974 1.16018 0.552498 -0.916994 -0.388662 0.089802
Sp 2.13975 2.06728 -0.39372 -0.14324 0.817245 0.558205
Sp 1.81812 0.0598313 1.80757 -0.785453 0.318504 -0.530677
Sp 0.848731 -0.200372 0.649706 0.494019 0.663057 -0.562407
Sp -0.424697 2.13615 -0.454674 -0.767182 -0.0157194 -0.641237
Sp 0.866005 -0.490532 -0.0154489 0.20221 0.784665 0.586013
Sp 0.388658 0.898697 1.9112 -0.915797 -0.206861 -0.344273
Sp 2.05484 -0.178379 -0.393538 0.294433 0.461119 0.837065
Sp 1.69216 0.295005 1.51277 -0.724323 -0.51801 0.454997
Sp 0.239426 0.222582 0.988685 -0.232594 -0.579622 -0.780985
Sp 0.204557 1.03224 -0.107998 -0.715733 -0.0166778 -0.698175
Sp 0.717021 -0.0501544 1.13487 0.00477756 -0.976482 -0.215548
Sp 2.22874 0.329137 1.96487 0.0270451 0.717602 0.695928
d 5 5 5 0 0 1
d 5 5 5 0.5 0 0.866025
d 5 5 5 0.866025 0 0.5
d 5 5 5 1 0 4.64686e-14
d 5 5 5 0.866025 0 -0.5
d 5 5 5 0.5 0 -0.866025
d 5 5 5 0 0 1
d 5 5 5 0.433013 0.25 0.866025
d 5 5 5 0.75 0.433013 0.5
d 5 5 5 0.866025 0.5 4.64686e-14
d 5 5 5 0.75 0.433013 -0.5
d 5 5 5 0.433013 0.25 -0.866025
d 5 5 5 0 0 1
d 5 5 5 0.25 0.433013 0.866025
d 5 5 5 0.433013 0.75 0.5
d 5 5 5 0.5 0.866025 4.64686e-14
d 5 5 5 0.433013 0.75 -0.5
d 5 5 5 0.25 0.433013 -0.866025
d 5 5 5 0 0 1
d 5 5 5 2.32343e-14 0.5 0.866025
d 5 5 5 4.02429e-14 0.866025 0.5
d 5 5 5 4.64686e-14 1 4.64686e-14
d 5 5 5 4.02429e-14 0.866025 -0.5
d 5 5 5 2.32343e-14 0.5 -0.866025
d 5 5 5 -0 0 1
d 5 5 5 -0.25 0.433013 0.866025
d 5 5 5 -0.433013 0.75 0.5
d 5 5 5 -0.5 0.866025 4.64686e-14
d 5 5 5 -0.433013 0.75 -0.5
d 5 5 5 -0.25 0.433013 -0.866025
d 5 5 5 -0 0 1
d 5 5 5 -0.433013 0.25 0.866025
d 5 5 5 -0.75 0.433013 0.5
d 5 5 5 -0.866025 0.5 4.64686e-14
d 5 5 5 -0.75 0.433013 -0.5
d 5 5 5 -0.433013 0.25 -0.866025
d 5 5 5 -0 0 1
d 5 5 5 -0.5 4.64686e-14 0.866025
d 5 5 5 -0.866025 8.04859e-14 0.5
d 5 5 5 -1 9.29371e-14 4.64686e-14
d 5 5 5 -0.866025 8.04859e-14 -0.5
d 5 5 5 -0.5 4.64686e-14 -0.866025
d 5 5 5 -0 -0 1
d 5 5 5 -0.433013 -0.25 0.866025
d 5 5 5 -0.75 -0.433013 0.5
d 5 5 5 -0.866025 -0.5 4.64686e-14
d 5 5 5 -0.75 -0.433013 -0.5
d 5 5 5 -0.433013 -0.25 -0.866025
d 5 5 5 -0 -0 1
d 5 5 5 -0.25 -0.433013 0.866025
d 5 5 5 -0.433013 -0.75 0.5
d 5 5 5 -0.5 -0.866025 4.64686e-14
d 5 5 5 -0.433013 -0.75 -0.5
d 5 5 5 -0.25 -0.433013 -0.866025
d 5 5 5 -0 -0 1
d 5 5 5 -6.98139e-14 -0.5 0.866025
d 5 5 5 -1.20921e-13 -0.866025 0.5
d 5 5 5 -1.39628e-13 -1 4.64686e-14
d 5 5 5 -1.20921e-13 -0.866025 -0.5
d 5 5 5 -6.98139e-14 -0.5 -0.866025
d 5 5 5 0 -0 1
d 5 5 5 0.25 -0.433013 0.866025
d 5 5 5 0.433013 -0.75 0.5
d 5 5 5 0.5 -0.866025 4.64686e-14
d 5 5 5 0.433013 -0.75 -0.5
d 5 5 5 0.25 -0.433013 -0.866025
d 5 5 5 0 -0 1
d 5 5 5 0.433013 -0.25 0.866025
d 5 5 5 0.75 -0.433013 0.5
d 5 5 5 0.866025 -0.5 4.64686e-14
d 5 5 5 0.75 -0.433013 -0.5
d 5 5 5 0.433013 -0.25 -0.866025
