99
Liquid Crystals with Colloide in temperature=1.9, and potential=-6.05079e-23
Sp -0.483271 1.8197 1.79958 -0.909369 -0.183359 0.3734
Sp 0.337047 1.51942 -0.118969 0.245432 0.216191 -0.945
Sp 1.77623 0.144886 1.6741 0.924395 0.37686 0.0589174
Sp 0.281892 1.71463 0.850896 0.543479 0.835868 -0.0771644
Sp 0.298303 1.66136 -0.203069 0.601979 -0.707402 -0.37041
Sp 0.174205 1.7129 1.90686 0.54288 0.17112 -0.822192
Sp 0.0251973 0.63441 1.56243 -0.193775 0.655907 0.729546
Sp 1.24519 1.3173 -0.472533 -0.303846 0.606523 0.734716
Sp 2.48665 -0.0812087 0.513882 0.101049 0.988534 -0.112201
Sp 2.46391 1.94711 2.12024 0.977825 0.149811 -0.146337
Sp 1.52237 0.409534 0.867043 0.236666 0.955832 -0.174285
Sp 0.283697 0.153178 -0.407944 0.684897 -0.642112 0.344395
Sp 1.78491 1.06746 1.43742 -0.222653 0.916218 0.333121
Sp 1.08322 1.87358 1.13407 -0.280798 0.251375 0.926263
Sp 0.610628 0.494841 0.276479 -0.801858 -0.595645 0.0472231
Sp 1.99981 0.415149 2.4403 -0.149133 0.908088 0.391326
Sp 0.840381 0.623707 -0.306439 -0.86811 0.402372 -0.290657
Sp -0.104209 1.03658 0.0417989 0.618063 0.734752 -0.279532
Sp 0.0499679 2.09668 0.568986 -0.845981 -0.0169747 -0.532943
Sp 1.25315 1.94487 0.130452 0.297247 0.712944 0.635102
Sp 0.128751 1.33373 1.55359 -0.919797 -0.0736812 -0.385415
Sp 0.232419 -0.447258 1.5317 0.612054 0.501168 0.611735
Sp -0.0169443 -0.376465 1.84536 -0.408678 -0.712003 0.570994
Sp 0.657845 0.400542 2.11854 -0.0625336 -0.377229 -0.924007
Sp -0.240722 -0.453294 2.1537 -0.493748 0.50663 -0.706781
Sp 1.25464 0.653408 0.407594 0.17284 -0.92684 0.333308
Sp 0.554583 0.68106 0.0507798 0.398563 0.57833 0.711816
d 5 5 5 0 0 1
d 5 5 5 0.5 0 0.866025
d 5 5 5 0.866025 0 0.5
d 5 5 5 1 0 4.64686e-14
d 5 5 5 0.866025 0 -0.5
d 5 5 5 0.5 0 -0.866025
d 5 5 5 0 0 1
d 5 5 5 0.433013 0.25 0.866025
d 5 5 5 0.75 0.433013 0.5
d 5 5 5 0.866025 0.5 4.64686e-14
d 5 5 5 0.75 0.433013 -0.5
d 5 5 5 0.433013 0.25 -0.866025
d 5 5 5 0 0 1
d 5 5 5 0.25 0.433013 0.866025
d 5 5 5 0.433013 0.75 0.5
d 5 5 5 0.5 0.866025 4.64686e-14
d 5 5 5 0.433013 0.75 -0.5
d 5 5 5 0.25 0.433013 -0.866025
d 5 5 5 0 0 1
d 5 5 5 2.32343e-14 0.5 0.866025
d 5 5 5 4.02429e-14 0.866025 0.5
d 5 5 5 4.64686e-14 1 4.64686e-14
d 5 5 5 4.02429e-14 0.866025 -0.5
d 5 5 5 2.32343e-14 0.5 -0.866025
d 5 5 5 -0 0 1
d 5 5 5 -0.25 0.433013 0.866025
d 5 5 5 -0.433013 0.75 0.5
d 5 5 5 -0.5 0.866025 4.64686e-14
d 5 5 5 -0.433013 0.75 -0.5
d 5 5 5 -0.25 0.433013 -0.866025
d 5 5 5 -0 0 1
d 5 5 5 -0.433013 0.25 0.866025
d 5 5 5 -0.75 0.433013 0.5
d 5 5 5 -0.866025 0.5 4.64686e-14
d 5 5 5 -0.75 0.433013 -0.5
d 5 5 5 -0.433013 0.25 -0.866025
d 5 5 5 -0 0 1
d 5 5 5 -0.5 4.64686e-14 0.866025
d 5 5 5 -0.866025 8.04859e-14 0.5
d 5 5 5 -1 9.29371e-14 4.64686e-14
d 5 5 5 -0.866025 8.04859e-14 -0.5
d 5 5 5 -0.5 4.64686e-14 -0.866025
d 5 5 5 -0 -0 1
d 5 5 5 -0.433013 -0.25 0.866025
d 5 5 5 -0.75 -0.433013 0.5
d 5 5 5 -0.866025 -0.5 4.64686e-14
d 5 5 5 -0.75 -0.433013 -0.5
d 5 5 5 -0.433013 -0.25 -0.866025
d 5 5 5 -0 -0 1
d 5 5 5 -0.25 -0.433013 0.866025
d 5 5 5 -0.433013 -0.75 0.5
d 5 5 5 -0.5 -0.866025 4.64686e-14
d 5 5 5 -0.433013 -0.75 -0.5
d 5 5 5 -0.25 -0.433013 -0.866025
d 5 5 5 -0 -0 1
d 5 5 5 -6.98139e-14 -0.5 0.866025
d 5 5 5 -1.20921e-13 -0.866025 0.5
d 5 5 5 -1.39628e-13 -1 4.64686e-14
d 5 5 5 -1.20921e-13 -0.866025 -0.5
d 5 5 5 -6.98139e-14 -0.5 -0.866025
d 5 5 5 0 -0 1
d 5 5 5 0.25 -0.433013 0.866025
d 5 5 5 0.433013 -0.75 0.5
d 5 5 5 0.5 -0.866025 4.64686e-14
d 5 5 5 0.433013 -0.75 -0.5
d 5 5 5 0.25 -0.433013 -0.866025
d 5 5 5 0 -0 1
d 5 5 5 0.433013 -0.25 0.866025
d 5 5 5 0.75 -0.433013 0.5
d 5 5 5 0.866025 -0.5 4.64686e-14
d 5 5 5 0.75 -0.433013 -0.5
d 5 5 5 0.433013 -0.25 -0.866025
