99
Liquid Crystals with Colloide in temperature=0.4, and potential=-1.92882e-22
Sp 2.08375 1.61393 1.00512 -0.962857 -0.212151 0.167028
Sp 1.96977 0.395738 0.668717 0.466285 0.0525216 -0.883074
Sp 0.395938 1.17101 1.80915 0.902297 0.421627 0.0899503
Sp 1.13122 1.07097 0.0248683 0.183148 0.908295 -0.376108
Sp -0.329643 1.21981 1.22981 0.912958 -0.363539 0.18533
Sp 2.1559 0.867603 -0.0377384 0.287961 0.727318 -0.622967
Sp 2.34644 2.13343 0.191007 -0.282171 0.654965 0.701
Sp 0.5254 0.553294 2.4598 0.187187 0.966399 0.176162
Sp 1.68716 1.65365 0.185624 0.596834 0.801698 -0.0327114
Sp 0.352217 1.97205 1.45877 0.965996 0.0950852 -0.24044
Sp 1.23956 0.198958 1.59236 0.152553 0.988242 0.0102366
Sp 1.75655 -0.220449 0.748087 0.460919 -0.887442 -0.000909639
Sp 2.1469 2.11776 -0.494088 -0.128431 0.874575 0.467573
Sp 1.12705 2.4163 2.25789 -0.212957 0.302514 0.929051
Sp -0.234275 2.20948 0.951337 -0.972074 -0.141881 0.18693
Sp 2.04169 0.548799 -0.224964 -0.263942 0.574529 0.774758
Sp 1.94817 1.82012 0.0993256 -0.684308 0.695128 -0.220271
Sp 1.71103 0.117149 1.87118 0.487241 0.486042 -0.725506
Sp 0.475895 1.35728 1.73099 -0.509425 -0.233436 -0.828247
Sp 1.70199 0.974831 0.265243 0.216874 0.864435 0.453562
Sp -0.203503 0.0170122 0.977385 -0.301736 -0.516839 -0.801145
Sp 1.24425 -0.496077 0.940721 0.0524436 0.28877 0.955961
Sp -0.23708 2.2266 1.95751 -0.431335 -0.732955 0.526048
Sp 0.895433 1.37988 0.134905 -0.544292 -0.660914 -0.516661
Sp 2.37259 2.1745 2.33538 -0.274036 0.269997 -0.923042
Sp 2.3523 0.344617 0.283732 0.303701 -0.929532 -0.209133
Sp 0.415803 0.981774 1.42714 0.300064 0.806095 0.510072
d 5 5 5 0 0 1
d 5 5 5 0.5 0 0.866025
d 5 5 5 0.866025 0 0.5
d 5 5 5 1 0 4.64686e-14
d 5 5 5 0.866025 0 -0.5
d 5 5 5 0.5 0 -0.866025
d 5 5 5 0 0 1
d 5 5 5 0.433013 0.25 0.866025
d 5 5 5 0.75 0.433013 0.5
d 5 5 5 0.866025 0.5 4.64686e-14
d 5 5 5 0.75 0.433013 -0.5
d 5 5 5 0.433013 0.25 -0.866025
d 5 5 5 0 0 1
d 5 5 5 0.25 0.433013 0.866025
d 5 5 5 0.433013 0.75 0.5
d 5 5 5 0.5 0.866025 4.64686e-14
d 5 5 5 0.433013 0.75 -0.5
d 5 5 5 0.25 0.433013 -0.866025
d 5 5 5 0 0 1
d 5 5 5 2.32343e-14 0.5 0.866025
d 5 5 5 4.02429e-14 0.866025 0.5
d 5 5 5 4.64686e-14 1 4.64686e-14
d 5 5 5 4.02429e-14 0.866025 -0.5
d 5 5 5 2.32343e-14 0.5 -0.866025
d 5 5 5 -0 0 1
d 5 5 5 -0.25 0.433013 0.866025
d 5 5 5 -0.433013 0.75 0.5
d 5 5 5 -0.5 0.866025 4.64686e-14
d 5 5 5 -0.433013 0.75 -0.5
d 5 5 5 -0.25 0.433013 -0.866025
d 5 5 5 -0 0 1
d 5 5 5 -0.433013 0.25 0.866025
d 5 5 5 -0.75 0.433013 0.5
d 5 5 5 -0.866025 0.5 4.64686e-14
d 5 5 5 -0.75 0.433013 -0.5
d 5 5 5 -0.433013 0.25 -0.866025
d 5 5 5 -0 0 1
d 5 5 5 -0.5 4.64686e-14 0.866025
d 5 5 5 -0.866025 8.04859e-14 0.5
d 5 5 5 -1 9.29371e-14 4.64686e-14
d 5 5 5 -0.866025 8.04859e-14 -0.5
d 5 5 5 -0.5 4.64686e-14 -0.866025
d 5 5 5 -0 -0 1
d 5 5 5 -0.433013 -0.25 0.866025
d 5 5 5 -0.75 -0.433013 0.5
d 5 5 5 -0.866025 -0.5 4.64686e-14
d 5 5 5 -0.75 -0.433013 -0.5
d 5 5 5 -0.433013 -0.25 -0.866025
d 5 5 5 -0 -0 1
d 5 5 5 -0.25 -0.433013 0.866025
d 5 5 5 -0.433013 -0.75 0.5
d 5 5 5 -0.5 -0.866025 4.64686e-14
d 5 5 5 -0.433013 -0.75 -0.5
d 5 5 5 -0.25 -0.433013 -0.866025
d 5 5 5 -0 -0 1
d 5 5 5 -6.98139e-14 -0.5 0.866025
d 5 5 5 -1.20921e-13 -0.866025 0.5
d 5 5 5 -1.39628e-13 -1 4.64686e-14
d 5 5 5 -1.20921e-13 -0.866025 -0.5
d 5 5 5 -6.98139e-14 -0.5 -0.866025
d 5 5 5 0 -0 1
d 5 5 5 0.25 -0.433013 0.866025
d 5 5 5 0.433013 -0.75 0.5
d 5 5 5 0.5 -0.866025 4.64686e-14
d 5 5 5 0.433013 -0.75 -0.5
d 5 5 5 0.25 -0.433013 -0.866025
d 5 5 5 0 -0 1
d 5 5 5 0.433013 -0.25 0.866025
d 5 5 5 0.75 -0.433013 0.5
d 5 5 5 0.866025 -0.5 4.64686e-14
d 5 5 5 0.75 -0.433013 -0.5
d 5 5 5 0.433013 -0.25 -0.866025
