99
Liquid Crystals with Colloide in temperature=1.7, and potential=-9.32938e-23
Sp 2.42797 1.44817 1.53582 -0.914245 -0.269136 0.302857
Sp 0.741655 0.641472 -0.397337 0.32452 -0.00231153 -0.945876
Sp 2.24897 0.374443 1.78553 0.918076 0.385955 0.0904133
Sp 0.441344 1.47537 0.952097 0.597438 0.80031 -0.0507139
Sp -0.188953 1.05083 2.46638 0.421539 -0.804049 -0.419296
Sp 0.283857 2.18919 2.0301 0.562648 0.293781 -0.772735
Sp 0.314234 -0.140056 1.93848 -0.138245 0.49001 0.860685
Sp 1.23776 1.64063 0.263377 -0.258069 0.576619 0.775185
Sp 1.7744 0.106615 1.08947 -0.0925926 0.9937 0.0631419
Sp 0.151108 1.72646 1.70729 0.974137 0.0721017 -0.214145
Sp 1.14098 0.0751592 1.12734 0.162232 0.979738 -0.117447
Sp 0.245695 0.796985 2.39866 0.764218 -0.551909 0.333717
Sp 2.34465 1.32241 1.50061 -0.0792686 0.939101 0.334373
Sp 1.08322 1.87358 1.13407 -0.280798 0.251375 0.926263
Sp 0.411133 0.711102 -0.292326 -0.839878 -0.533205 -0.101478
Sp 1.80122 0.595377 2.27808 -0.191808 0.920747 0.339756
Sp 1.57717 0.376682 -0.408325 -0.836654 0.411627 -0.36135
Sp -0.375575 2.05466 -0.0953187 0.440645 0.855334 -0.272464
Sp 0.208888 -0.346374 -0.163767 -0.743205 0.118193 -0.658541
Sp 1.13175 1.26525 0.0998202 0.309567 0.628127 0.71388
Sp 0.481581 1.33644 1.19448 -0.862904 -0.0775215 -0.499387
Sp 0.232419 -0.447258 1.5317 0.612054 0.501168 0.611735
Sp 2.49037 0.249077 2.27261 -0.518265 -0.542719 0.660951
Sp 0.93957 0.698488 2.05813 0.00800379 -0.306812 -0.951736
Sp -0.132859 2.41456 2.04731 -0.470826 0.474547 -0.743725
Sp 1.79585 0.179114 2.06468 0.281331 -0.959532 -0.0122876
Sp 0.345957 0.454958 0.108977 0.360296 0.543717 0.757997
d 5 5 5 0 0 1
d 5 5 5 0.5 0 0.866025
d 5 5 5 0.866025 0 0.5
d 5 5 5 1 0 4.64686e-14
d 5 5 5 0.866025 0 -0.5
d 5 5 5 0.5 0 -0.866025
d 5 5 5 0 0 1
d 5 5 5 0.433013 0.25 0.866025
d 5 5 5 0.75 0.433013 0.5
d 5 5 5 0.866025 0.5 4.64686e-14
d 5 5 5 0.75 0.433013 -0.5
d 5 5 5 0.433013 0.25 -0.866025
d 5 5 5 0 0 1
d 5 5 5 0.25 0.433013 0.866025
d 5 5 5 0.433013 0.75 0.5
d 5 5 5 0.5 0.866025 4.64686e-14
d 5 5 5 0.433013 0.75 -0.5
d 5 5 5 0.25 0.433013 -0.866025
d 5 5 5 0 0 1
d 5 5 5 2.32343e-14 0.5 0.866025
d 5 5 5 4.02429e-14 0.866025 0.5
d 5 5 5 4.64686e-14 1 4.64686e-14
d 5 5 5 4.02429e-14 0.866025 -0.5
d 5 5 5 2.32343e-14 0.5 -0.866025
d 5 5 5 -0 0 1
d 5 5 5 -0.25 0.433013 0.866025
d 5 5 5 -0.433013 0.75 0.5
d 5 5 5 -0.5 0.866025 4.64686e-14
d 5 5 5 -0.433013 0.75 -0.5
d 5 5 5 -0.25 0.433013 -0.866025
d 5 5 5 -0 0 1
d 5 5 5 -0.433013 0.25 0.866025
d 5 5 5 -0.75 0.433013 0.5
d 5 5 5 -0.866025 0.5 4.64686e-14
d 5 5 5 -0.75 0.433013 -0.5
d 5 5 5 -0.433013 0.25 -0.866025
d 5 5 5 -0 0 1
d 5 5 5 -0.5 4.64686e-14 0.866025
d 5 5 5 -0.866025 8.04859e-14 0.5
d 5 5 5 -1 9.29371e-14 4.64686e-14
d 5 5 5 -0.866025 8.04859e-14 -0.5
d 5 5 5 -0.5 4.64686e-14 -0.866025
d 5 5 5 -0 -0 1
d 5 5 5 -0.433013 -0.25 0.866025
d 5 5 5 -0.75 -0.433013 0.5
d 5 5 5 -0.866025 -0.5 4.64686e-14
d 5 5 5 -0.75 -0.433013 -0.5
d 5 5 5 -0.433013 -0.25 -0.866025
d 5 5 5 -0 -0 1
d 5 5 5 -0.25 -0.433013 0.866025
d 5 5 5 -0.433013 -0.75 0.5
d 5 5 5 -0.5 -0.866025 4.64686e-14
d 5 5 5 -0.433013 -0.75 -0.5
d 5 5 5 -0.25 -0.433013 -0.866025
d 5 5 5 -0 -0 1
d 5 5 5 -6.98139e-14 -0.5 0.866025
d 5 5 5 -1.20921e-13 -0.866025 0.5
d 5 5 5 -1.39628e-13 -1 4.64686e-14
d 5 5 5 -1.20921e-13 -0.866025 -0.5
d 5 5 5 -6.98139e-14 -0.5 -0.866025
d 5 5 5 0 -0 1
d 5 5 5 0.25 -0.433013 0.866025
d 5 5 5 0.433013 -0.75 0.5
d 5 5 5 0.5 -0.866025 4.64686e-14
d 5 5 5 0.433013 -0.75 -0.5
d 5 5 5 0.25 -0.433013 -0.866025
d 5 5 5 0 -0 1
d 5 5 5 0.433013 -0.25 0.866025
d 5 5 5 0.75 -0.433013 0.5
d 5 5 5 0.866025 -0.5 4.64686e-14
d 5 5 5 0.75 -0.433013 -0.5
d 5 5 5 0.433013 -0.25 -0.866025
