99
Liquid Crystals with Colloide in temperature=0.2, and potential=-3.0578e-22
Sp 2.06778 1.31706 1.04584 -0.944231 -0.280014 0.173265
Sp 1.05199 -0.267246 1.80713 0.331369 -0.135422 -0.933732
Sp 0.395938 1.17101 1.80915 0.902297 0.421627 0.0899503
Sp 1.37305 2.13438 -0.215416 0.336106 0.708659 -0.62035
Sp 0.355418 1.95453 1.14826 0.976229 -0.164569 0.141049
Sp 2.20195 0.956482 2.28401 0.263943 0.659156 -0.704164
Sp 1.44416 -0.0121058 -0.21462 0.220665 0.80907 0.544714
Sp 0.5254 0.553294 2.4598 0.187187 0.966399 0.176162
Sp 1.39952 -0.323784 2.10195 0.416785 0.866542 -0.274582
Sp 0.352217 1.97205 1.45877 0.965996 0.0950852 -0.24044
Sp 1.46116 0.121504 1.70527 0.212736 0.976345 0.0386559
Sp 1.86742 0.380288 0.610076 0.528 -0.848317 -0.0396896
Sp 0.742182 -0.198091 -0.166339 0.308873 0.540052 0.782906
Sp 1.12705 2.4163 2.25789 -0.212957 0.302514 0.929051
Sp -0.234275 2.20948 0.951337 -0.972074 -0.141881 0.18693
Sp -0.0511344 2.28072 2.30043 -0.0204721 0.408359 0.912592
Sp 2.07579 0.600108 0.625788 -0.857803 0.4941 -0.141565
Sp 1.40482 2.46457 0.474255 0.351251 0.271809 -0.895959
Sp -0.306013 1.17357 0.819587 -0.547579 -0.198059 -0.812976
Sp 2.10695 1.59156 0.16133 0.287952 0.889121 0.355735
Sp 1.33654 -0.0592627 2.11832 0.109812 -0.381603 -0.91778
Sp 2.08365 0.483647 2.32252 -0.53061 0.571268 0.626184
Sp -0.454789 2.31242 1.16365 -0.514597 -0.779459 0.357259
Sp 1.72233 2.25842 -0.261003 -0.432405 -0.499819 -0.750471
Sp 2.21879 2.1608 1.79564 -0.272063 0.234143 -0.933359
Sp 0.610438 0.771205 0.456809 0.610424 -0.779651 -0.139738
Sp 0.415803 0.981774 1.42714 0.300064 0.806095 0.510072
d 5 5 5 0 0 1
d 5 5 5 0.5 0 0.866025
d 5 5 5 0.866025 0 0.5
d 5 5 5 1 0 4.64686e-14
d 5 5 5 0.866025 0 -0.5
d 5 5 5 0.5 0 -0.866025
d 5 5 5 0 0 1
d 5 5 5 0.433013 0.25 0.866025
d 5 5 5 0.75 0.433013 0.5
d 5 5 5 0.866025 0.5 4.64686e-14
d 5 5 5 0.75 0.433013 -0.5
d 5 5 5 0.433013 0.25 -0.866025
d 5 5 5 0 0 1
d 5 5 5 0.25 0.433013 0.866025
d 5 5 5 0.433013 0.75 0.5
d 5 5 5 0.5 0.866025 4.64686e-14
d 5 5 5 0.433013 0.75 -0.5
d 5 5 5 0.25 0.433013 -0.866025
d 5 5 5 0 0 1
d 5 5 5 2.32343e-14 0.5 0.866025
d 5 5 5 4.02429e-14 0.866025 0.5
d 5 5 5 4.64686e-14 1 4.64686e-14
d 5 5 5 4.02429e-14 0.866025 -0.5
d 5 5 5 2.32343e-14 0.5 -0.866025
d 5 5 5 -0 0 1
d 5 5 5 -0.25 0.433013 0.866025
d 5 5 5 -0.433013 0.75 0.5
d 5 5 5 -0.5 0.866025 4.64686e-14
d 5 5 5 -0.433013 0.75 -0.5
d 5 5 5 -0.25 0.433013 -0.866025
d 5 5 5 -0 0 1
d 5 5 5 -0.433013 0.25 0.866025
d 5 5 5 -0.75 0.433013 0.5
d 5 5 5 -0.866025 0.5 4.64686e-14
d 5 5 5 -0.75 0.433013 -0.5
d 5 5 5 -0.433013 0.25 -0.866025
d 5 5 5 -0 0 1
d 5 5 5 -0.5 4.64686e-14 0.866025
d 5 5 5 -0.866025 8.04859e-14 0.5
d 5 5 5 -1 9.29371e-14 4.64686e-14
d 5 5 5 -0.866025 8.04859e-14 -0.5
d 5 5 5 -0.5 4.64686e-14 -0.866025
d 5 5 5 -0 -0 1
d 5 5 5 -0.433013 -0.25 0.866025
d 5 5 5 -0.75 -0.433013 0.5
d 5 5 5 -0.866025 -0.5 4.64686e-14
d 5 5 5 -0.75 -0.433013 -0.5
d 5 5 5 -0.433013 -0.25 -0.866025
d 5 5 5 -0 -0 1
d 5 5 5 -0.25 -0.433013 0.866025
d 5 5 5 -0.433013 -0.75 0.5
d 5 5 5 -0.5 -0.866025 4.64686e-14
d 5 5 5 -0.433013 -0.75 -0.5
d 5 5 5 -0.25 -0.433013 -0.866025
d 5 5 5 -0 -0 1
d 5 5 5 -6.98139e-14 -0.5 0.866025
d 5 5 5 -1.20921e-13 -0.866025 0.5
d 5 5 5 -1.39628e-13 -1 4.64686e-14
d 5 5 5 -1.20921e-13 -0.866025 -0.5
d 5 5 5 -6.98139e-14 -0.5 -0.866025
d 5 5 5 0 -0 1
d 5 5 5 0.25 -0.433013 0.866025
d 5 5 5 0.433013 -0.75 0.5
d 5 5 5 0.5 -0.866025 4.64686e-14
d 5 5 5 0.433013 -0.75 -0.5
d 5 5 5 0.25 -0.433013 -0.866025
d 5 5 5 0 -0 1
d 5 5 5 0.433013 -0.25 0.866025
d 5 5 5 0.75 -0.433013 0.5
d 5 5 5 0.866025 -0.5 4.64686e-14
d 5 5 5 0.75 -0.433013 -0.5
d 5 5 5 0.433013 -0.25 -0.866025
