99
Liquid Crystals with Colloide in temperature=0.1, and potential=-4.01745e-22
Sp 1.83835 0.088777 1.82845 -0.10623 -0.926959 -0.359809
Sp -0.206061 2.09273 -0.43685 0.687984 -0.584997 -0.429483
Sp 0.264584 0.844769 2.04432 0.672788 0.172628 0.719413
Sp 0.201553 2.12692 1.04387 -0.785149 0.0379425 -0.618143
Sp 0.30122 1.38258 1.33017 -0.0783475 -0.17657 -0.981165
Sp 0.803932 0.131238 1.01963 0.0226359 0.778315 0.627465
Sp 1.7014 1.79941 -0.429638 -0.307426 0.950102 0.052873
Sp 0.876193 -0.461847 2.16855 -0.217083 -0.773635 0.595285
Sp 1.62377 1.61986 2.41053 -0.52191 -0.0445955 -0.851834
Sp 0.776575 0.79659 0.609975 0.264762 0.21979 0.938932
Sp 1.35639 0.482711 0.569147 0.287881 0.23872 0.927436
Sp 1.72171 0.589728 2.38359 0.117232 0.781347 -0.612987
Sp 0.977493 0.932243 2.27219 -0.385595 -0.517631 -0.76379
Sp 1.14824 1.0477 0.997553 -0.779384 -0.514855 -0.357052
Sp 1.013 0.720673 -0.206447 0.79956 -0.202356 -0.56547
Sp 0.990753 2.2286 -0.325307 -0.0409027 -0.182468 0.982361
Sp 0.369171 1.76005 1.61966 0.353868 -0.119268 0.92766
Sp 1.20077 1.84224 -0.439021 -0.520259 -0.846027 0.116484
Sp 0.458584 2.44038 2.07638 -0.637616 -0.736149 -0.227004
Sp 1.81068 0.562779 1.11494 0.743054 0.667475 -0.0484578
Sp 2.17721 2.39832 0.576732 -0.106234 0.152881 -0.982518
Sp 1.53671 2.31449 0.237706 -0.55421 -0.0589543 0.830287
Sp 1.12776 0.708051 0.134352 -0.667532 0.496558 0.554825
Sp 0.475591 1.34339 1.2138 -0.886112 0.105371 0.451335
Sp 1.11231 2.21191 2.44567 0.368708 0.155459 -0.916453
Sp 1.31038 2.48627 0.446638 -0.0550651 0.107573 0.992671
Sp 1.26749 1.76333 0.403861 -0.205114 -0.658991 0.723643
d 5 5 5 0 0 1
d 5 5 5 0.5 0 0.866025
d 5 5 5 0.866025 0 0.5
d 5 5 5 1 0 4.64686e-14
d 5 5 5 0.866025 0 -0.5
d 5 5 5 0.5 0 -0.866025
d 5 5 5 0 0 1
d 5 5 5 0.433013 0.25 0.866025
d 5 5 5 0.75 0.433013 0.5
d 5 5 5 0.866025 0.5 4.64686e-14
d 5 5 5 0.75 0.433013 -0.5
d 5 5 5 0.433013 0.25 -0.866025
d 5 5 5 0 0 1
d 5 5 5 0.25 0.433013 0.866025
d 5 5 5 0.433013 0.75 0.5
d 5 5 5 0.5 0.866025 4.64686e-14
d 5 5 5 0.433013 0.75 -0.5
d 5 5 5 0.25 0.433013 -0.866025
d 5 5 5 0 0 1
d 5 5 5 2.32343e-14 0.5 0.866025
d 5 5 5 4.02429e-14 0.866025 0.5
d 5 5 5 4.64686e-14 1 4.64686e-14
d 5 5 5 4.02429e-14 0.866025 -0.5
d 5 5 5 2.32343e-14 0.5 -0.866025
d 5 5 5 -0 0 1
d 5 5 5 -0.25 0.433013 0.866025
d 5 5 5 -0.433013 0.75 0.5
d 5 5 5 -0.5 0.866025 4.64686e-14
d 5 5 5 -0.433013 0.75 -0.5
d 5 5 5 -0.25 0.433013 -0.866025
d 5 5 5 -0 0 1
d 5 5 5 -0.433013 0.25 0.866025
d 5 5 5 -0.75 0.433013 0.5
d 5 5 5 -0.866025 0.5 4.64686e-14
d 5 5 5 -0.75 0.433013 -0.5
d 5 5 5 -0.433013 0.25 -0.866025
d 5 5 5 -0 0 1
d 5 5 5 -0.5 4.64686e-14 0.866025
d 5 5 5 -0.866025 8.04859e-14 0.5
d 5 5 5 -1 9.29371e-14 4.64686e-14
d 5 5 5 -0.866025 8.04859e-14 -0.5
d 5 5 5 -0.5 4.64686e-14 -0.866025
d 5 5 5 -0 -0 1
d 5 5 5 -0.433013 -0.25 0.866025
d 5 5 5 -0.75 -0.433013 0.5
d 5 5 5 -0.866025 -0.5 4.64686e-14
d 5 5 5 -0.75 -0.433013 -0.5
d 5 5 5 -0.433013 -0.25 -0.866025
d 5 5 5 -0 -0 1
d 5 5 5 -0.25 -0.433013 0.866025
d 5 5 5 -0.433013 -0.75 0.5
d 5 5 5 -0.5 -0.866025 4.64686e-14
d 5 5 5 -0.433013 -0.75 -0.5
d 5 5 5 -0.25 -0.433013 -0.866025
d 5 5 5 -0 -0 1
d 5 5 5 -6.98139e-14 -0.5 0.866025
d 5 5 5 -1.20921e-13 -0.866025 0.5
d 5 5 5 -1.39628e-13 -1 4.64686e-14
d 5 5 5 -1.20921e-13 -0.866025 -0.5
d 5 5 5 -6.98139e-14 -0.5 -0.866025
d 5 5 5 0 -0 1
d 5 5 5 0.25 -0.433013 0.866025
d 5 5 5 0.433013 -0.75 0.5
d 5 5 5 0.5 -0.866025 4.64686e-14
d 5 5 5 0.433013 -0.75 -0.5
d 5 5 5 0.25 -0.433013 -0.866025
d 5 5 5 0 -0 1
d 5 5 5 0.433013 -0.25 0.866025
d 5 5 5 0.75 -0.433013 0.5
d 5 5 5 0.866025 -0.5 4.64686e-14
d 5 5 5 0.75 -0.433013 -0.5
d 5 5 5 0.433013 -0.25 -0.866025
