99
Liquid Crystals with Colloide in temperature=0.3, and potential=-2.96273e-22
Sp 2.16865 -0.28519 0.188749 -0.0362243 -0.99855 -0.0398172
Sp -0.329184 2.441 0.692706 0.737861 -0.649264 -0.184436
Sp 2.34948 2.0329 0.0955233 0.390413 -0.330276 0.859358
Sp 0.278081 2.46895 2.3749 -0.883511 0.0855337 -0.460534
Sp 0.30122 1.38258 1.33017 -0.0783475 -0.17657 -0.981165
Sp -0.212421 0.134773 1.95478 -0.245198 0.651991 0.717486
Sp 1.41478 1.59756 -0.485246 -0.378073 0.924893 0.0404263
Sp 1.86462 1.52228 -0.492803 0.0320459 -0.85184 0.522821
Sp 1.80978 1.64576 2.37831 -0.484305 -0.0386278 -0.874046
Sp 0.776575 0.79659 0.609975 0.264762 0.21979 0.938932
Sp 1.0894 0.497234 1.00985 0.213684 0.222 0.951344
Sp 2.06347 0.611434 2.14703 0.194767 0.744423 -0.638671
Sp 0.562905 0.760226 2.13706 -0.454028 -0.513124 -0.728397
Sp 1.14824 1.0477 0.997553 -0.779384 -0.514855 -0.357052
Sp -0.459979 -0.190167 1.55746 0.728455 -0.615405 -0.301049
Sp 0.61496 2.33043 -0.348987 -0.134928 -0.157351 0.978282
Sp 0.369171 1.76005 1.61966 0.353868 -0.119268 0.92766
Sp 0.44272 0.305212 0.127255 0.0285187 -0.977284 0.210006
Sp 2.48334 0.073557 0.810211 -0.827643 -0.51 0.234323
Sp 1.81068 0.562779 1.11494 0.743054 0.667475 -0.0484578
Sp 2.48963 2.07242 0.675788 -0.0324214 0.077952 -0.99643
Sp 0.166016 2.04126 2.06733 -0.467085 -0.115109 0.876688
Sp 1.17502 0.795037 0.457577 -0.623234 0.495987 0.604629
Sp 0.475591 1.34339 1.2138 -0.886112 0.105371 0.451335
Sp 1.24744 2.28698 2.36369 0.388797 0.168678 -0.905751
Sp 1.68388 2.25531 0.143149 0.0402731 0.0546899 0.997691
Sp 1.26749 1.76333 0.403861 -0.205114 -0.658991 0.723643
d 5 5 5 0 0 1
d 5 5 5 0.5 0 0.866025
d 5 5 5 0.866025 0 0.5
d 5 5 5 1 0 4.64686e-14
d 5 5 5 0.866025 0 -0.5
d 5 5 5 0.5 0 -0.866025
d 5 5 5 0 0 1
d 5 5 5 0.433013 0.25 0.866025
d 5 5 5 0.75 0.433013 0.5
d 5 5 5 0.866025 0.5 4.64686e-14
d 5 5 5 0.75 0.433013 -0.5
d 5 5 5 0.433013 0.25 -0.866025
d 5 5 5 0 0 1
d 5 5 5 0.25 0.433013 0.866025
d 5 5 5 0.433013 0.75 0.5
d 5 5 5 0.5 0.866025 4.64686e-14
d 5 5 5 0.433013 0.75 -0.5
d 5 5 5 0.25 0.433013 -0.866025
d 5 5 5 0 0 1
d 5 5 5 2.32343e-14 0.5 0.866025
d 5 5 5 4.02429e-14 0.866025 0.5
d 5 5 5 4.64686e-14 1 4.64686e-14
d 5 5 5 4.02429e-14 0.866025 -0.5
d 5 5 5 2.32343e-14 0.5 -0.866025
d 5 5 5 -0 0 1
d 5 5 5 -0.25 0.433013 0.866025
d 5 5 5 -0.433013 0.75 0.5
d 5 5 5 -0.5 0.866025 4.64686e-14
d 5 5 5 -0.433013 0.75 -0.5
d 5 5 5 -0.25 0.433013 -0.866025
d 5 5 5 -0 0 1
d 5 5 5 -0.433013 0.25 0.866025
d 5 5 5 -0.75 0.433013 0.5
d 5 5 5 -0.866025 0.5 4.64686e-14
d 5 5 5 -0.75 0.433013 -0.5
d 5 5 5 -0.433013 0.25 -0.866025
d 5 5 5 -0 0 1
d 5 5 5 -0.5 4.64686e-14 0.866025
d 5 5 5 -0.866025 8.04859e-14 0.5
d 5 5 5 -1 9.29371e-14 4.64686e-14
d 5 5 5 -0.866025 8.04859e-14 -0.5
d 5 5 5 -0.5 4.64686e-14 -0.866025
d 5 5 5 -0 -0 1
d 5 5 5 -0.433013 -0.25 0.866025
d 5 5 5 -0.75 -0.433013 0.5
d 5 5 5 -0.866025 -0.5 4.64686e-14
d 5 5 5 -0.75 -0.433013 -0.5
d 5 5 5 -0.433013 -0.25 -0.866025
d 5 5 5 -0 -0 1
d 5 5 5 -0.25 -0.433013 0.866025
d 5 5 5 -0.433013 -0.75 0.5
d 5 5 5 -0.5 -0.866025 4.64686e-14
d 5 5 5 -0.433013 -0.75 -0.5
d 5 5 5 -0.25 -0.433013 -0.866025
d 5 5 5 -0 -0 1
d 5 5 5 -6.98139e-14 -0.5 0.866025
d 5 5 5 -1.20921e-13 -0.866025 0.5
d 5 5 5 -1.39628e-13 -1 4.64686e-14
d 5 5 5 -1.20921e-13 -0.866025 -0.5
d 5 5 5 -6.98139e-14 -0.5 -0.866025
d 5 5 5 0 -0 1
d 5 5 5 0.25 -0.433013 0.866025
d 5 5 5 0.433013 -0.75 0.5
d 5 5 5 0.5 -0.866025 4.64686e-14
d 5 5 5 0.433013 -0.75 -0.5
d 5 5 5 0.25 -0.433013 -0.866025
d 5 5 5 0 -0 1
d 5 5 5 0.433013 -0.25 0.866025
d 5 5 5 0.75 -0.433013 0.5
d 5 5 5 0.866025 -0.5 4.64686e-14
d 5 5 5 0.75 -0.433013 -0.5
d 5 5 5 0.433013 -0.25 -0.866025
