99
Liquid Crystals with Colloide in temperature=1.6, and potential=-1.04146e-22
Sp 2.17618 2.05568 2.27913 -0.762005 -0.56878 -0.309577
Sp -0.384366 1.87577 1.8936 0.960432 -0.270347 0.066959
Sp 2.22285 0.840922 -0.157656 0.387706 -0.575948 0.7197
Sp -0.260893 2.45687 1.20403 -0.878525 0.38142 -0.2876
Sp 2.25249 2.24473 0.771497 -0.339477 -0.826667 -0.448752
Sp 2.45205 2.23361 1.64557 -0.282194 0.958707 -0.0353178
Sp 0.249853 1.16858 1.27729 -0.592957 0.669835 0.446903
Sp -0.393867 -0.449935 -0.370051 -0.693391 -0.44136 0.569571
Sp -0.320796 -0.0168937 2.18478 -0.281903 0.325505 -0.902539
Sp 0.595828 0.182105 1.60996 0.289938 0.161946 0.943244
Sp 1.59705 -0.0785323 2.20005 -0.444818 0.105289 0.889411
Sp 1.33395 2.4727 2.27733 0.0482734 0.0699547 -0.996381
Sp 1.15672 0.247045 1.57618 -0.245763 -0.605538 -0.756917
Sp 1.14824 1.0477 0.997553 -0.779384 -0.514855 -0.357052
Sp 0.390992 0.294858 0.109471 -0.529591 -0.80921 -0.254387
Sp 0.198436 -0.18749 0.16999 -0.486656 -0.0795517 0.869964
Sp -0.271567 0.106043 1.46333 0.383888 -0.65998 0.645799
Sp 0.502072 -0.42838 0.112209 -0.216444 -0.918941 0.329697
Sp 0.251806 1.02811 2.17575 -0.715647 -0.301183 0.630189
Sp 0.492685 0.577275 1.83212 0.601663 0.786317 0.140379
Sp 0.31612 0.294807 0.825207 0.245697 -0.463167 -0.851533
Sp 0.0609563 0.558318 1.71744 -0.528629 0.156973 0.834213
Sp 1.67253 1.50936 -0.0902416 0.216743 0.863209 0.455952
Sp 0.111216 2.38598 2.30793 -0.682579 -0.302719 -0.665167
Sp 0.993288 0.00854511 0.813509 0.426977 0.398847 -0.811549
Sp -0.477372 2.19275 2.27891 0.237297 0.0641016 0.96932
Sp -0.164815 0.677294 0.81551 0.413001 0.278432 0.867125
d 5 5 5 0 0 1
d 5 5 5 0.5 0 0.866025
d 5 5 5 0.866025 0 0.5
d 5 5 5 1 0 4.64686e-14
d 5 5 5 0.866025 0 -0.5
d 5 5 5 0.5 0 -0.866025
d 5 5 5 0 0 1
d 5 5 5 0.433013 0.25 0.866025
d 5 5 5 0.75 0.433013 0.5
d 5 5 5 0.866025 0.5 4.64686e-14
d 5 5 5 0.75 0.433013 -0.5
d 5 5 5 0.433013 0.25 -0.866025
d 5 5 5 0 0 1
d 5 5 5 0.25 0.433013 0.866025
d 5 5 5 0.433013 0.75 0.5
d 5 5 5 0.5 0.866025 4.64686e-14
d 5 5 5 0.433013 0.75 -0.5
d 5 5 5 0.25 0.433013 -0.866025
d 5 5 5 0 0 1
d 5 5 5 2.32343e-14 0.5 0.866025
d 5 5 5 4.02429e-14 0.866025 0.5
d 5 5 5 4.64686e-14 1 4.64686e-14
d 5 5 5 4.02429e-14 0.866025 -0.5
d 5 5 5 2.32343e-14 0.5 -0.866025
d 5 5 5 -0 0 1
d 5 5 5 -0.25 0.433013 0.866025
d 5 5 5 -0.433013 0.75 0.5
d 5 5 5 -0.5 0.866025 4.64686e-14
d 5 5 5 -0.433013 0.75 -0.5
d 5 5 5 -0.25 0.433013 -0.866025
d 5 5 5 -0 0 1
d 5 5 5 -0.433013 0.25 0.866025
d 5 5 5 -0.75 0.433013 0.5
d 5 5 5 -0.866025 0.5 4.64686e-14
d 5 5 5 -0.75 0.433013 -0.5
d 5 5 5 -0.433013 0.25 -0.866025
d 5 5 5 -0 0 1
d 5 5 5 -0.5 4.64686e-14 0.866025
d 5 5 5 -0.866025 8.04859e-14 0.5
d 5 5 5 -1 9.29371e-14 4.64686e-14
d 5 5 5 -0.866025 8.04859e-14 -0.5
d 5 5 5 -0.5 4.64686e-14 -0.866025
d 5 5 5 -0 -0 1
d 5 5 5 -0.433013 -0.25 0.866025
d 5 5 5 -0.75 -0.433013 0.5
d 5 5 5 -0.866025 -0.5 4.64686e-14
d 5 5 5 -0.75 -0.433013 -0.5
d 5 5 5 -0.433013 -0.25 -0.866025
d 5 5 5 -0 -0 1
d 5 5 5 -0.25 -0.433013 0.866025
d 5 5 5 -0.433013 -0.75 0.5
d 5 5 5 -0.5 -0.866025 4.64686e-14
d 5 5 5 -0.433013 -0.75 -0.5
d 5 5 5 -0.25 -0.433013 -0.866025
d 5 5 5 -0 -0 1
d 5 5 5 -6.98139e-14 -0.5 0.866025
d 5 5 5 -1.20921e-13 -0.866025 0.5
d 5 5 5 -1.39628e-13 -1 4.64686e-14
d 5 5 5 -1.20921e-13 -0.866025 -0.5
d 5 5 5 -6.98139e-14 -0.5 -0.866025
d 5 5 5 0 -0 1
d 5 5 5 0.25 -0.433013 0.866025
d 5 5 5 0.433013 -0.75 0.5
d 5 5 5 0.5 -0.866025 4.64686e-14
d 5 5 5 0.433013 -0.75 -0.5
d 5 5 5 0.25 -0.433013 -0.866025
d 5 5 5 0 -0 1
d 5 5 5 0.433013 -0.25 0.866025
d 5 5 5 0.75 -0.433013 0.5
d 5 5 5 0.866025 -0.5 4.64686e-14
d 5 5 5 0.75 -0.433013 -0.5
d 5 5 5 0.433013 -0.25 -0.866025
