99
Liquid Crystals with Colloide in temperature=0.5, and potential=-1.39575e-22
Sp -0.0448833 1.59798 0.389483 -0.608136 -0.793743 -0.0119694
Sp 2.27007 0.118604 0.578779 0.780264 -0.582731 -0.227185
Sp 1.83965 2.30194 -0.438414 0.32719 -0.333986 0.883968
Sp -0.100475 1.77059 0.306851 -0.823272 0.156713 -0.545587
Sp 0.30122 1.38258 1.33017 -0.0783475 -0.17657 -0.981165
Sp 2.29343 1.84533 1.89805 -0.354779 0.93407 0.0405568
Sp 2.00189 0.982417 0.0695875 -0.825525 0.540135 0.163595
Sp 0.0149547 0.453649 2.41995 -0.281793 -0.568808 0.77269
Sp 1.69188 1.5641 2.47289 -0.516414 -0.0584609 -0.854341
Sp 0.776575 0.79659 0.609975 0.264762 0.21979 0.938932
Sp 2.44178 0.815324 0.239277 -0.149675 0.333404 0.930827
Sp -0.187383 -0.406809 0.409596 -0.347915 0.764382 -0.54284
Sp 0.469324 0.526017 1.76709 -0.427717 -0.516049 -0.742127
Sp 1.14824 1.0477 0.997553 -0.779384 -0.514855 -0.357052
Sp 0.854691 -0.489027 1.94865 -0.346531 -0.842786 -0.41186
Sp -0.0307668 0.0390734 -0.194698 -0.367637 0.709463 0.601254
Sp -0.347319 1.87637 0.103088 0.322355 -0.149994 0.93466
Sp 2.27969 -0.325509 0.270417 -0.496263 -0.799247 0.339009
Sp 0.429752 1.48173 1.96827 -0.749234 -0.239954 0.617309
Sp 1.19919 -0.18469 1.77851 0.7792 0.612673 0.132209
Sp -0.0773671 0.819618 0.792425 0.0879993 -0.238793 -0.967075
Sp 0.173718 0.173137 0.654927 -0.661299 0.108925 0.742172
Sp -0.222672 1.77268 1.4656 -0.238258 0.609163 0.756408
Sp -0.195397 1.58081 1.95135 -0.981656 0.127355 -0.14189
Sp 1.11999 2.08999 0.45222 0.469914 0.165685 -0.867023
Sp 1.32218 -0.0907789 -0.2576 -0.0738895 0.215781 0.973642
Sp 0.089755 1.33221 -0.0656954 0.186668 -0.266403 0.945613
d 5 5 5 0 0 1
d 5 5 5 0.5 0 0.866025
d 5 5 5 0.866025 0 0.5
d 5 5 5 1 0 4.64686e-14
d 5 5 5 0.866025 0 -0.5
d 5 5 5 0.5 0 -0.866025
d 5 5 5 0 0 1
d 5 5 5 0.433013 0.25 0.866025
d 5 5 5 0.75 0.433013 0.5
d 5 5 5 0.866025 0.5 4.64686e-14
d 5 5 5 0.75 0.433013 -0.5
d 5 5 5 0.433013 0.25 -0.866025
d 5 5 5 0 0 1
d 5 5 5 0.25 0.433013 0.866025
d 5 5 5 0.433013 0.75 0.5
d 5 5 5 0.5 0.866025 4.64686e-14
d 5 5 5 0.433013 0.75 -0.5
d 5 5 5 0.25 0.433013 -0.866025
d 5 5 5 0 0 1
d 5 5 5 2.32343e-14 0.5 0.866025
d 5 5 5 4.02429e-14 0.866025 0.5
d 5 5 5 4.64686e-14 1 4.64686e-14
d 5 5 5 4.02429e-14 0.866025 -0.5
d 5 5 5 2.32343e-14 0.5 -0.866025
d 5 5 5 -0 0 1
d 5 5 5 -0.25 0.433013 0.866025
d 5 5 5 -0.433013 0.75 0.5
d 5 5 5 -0.5 0.866025 4.64686e-14
d 5 5 5 -0.433013 0.75 -0.5
d 5 5 5 -0.25 0.433013 -0.866025
d 5 5 5 -0 0 1
d 5 5 5 -0.433013 0.25 0.866025
d 5 5 5 -0.75 0.433013 0.5
d 5 5 5 -0.866025 0.5 4.64686e-14
d 5 5 5 -0.75 0.433013 -0.5
d 5 5 5 -0.433013 0.25 -0.866025
d 5 5 5 -0 0 1
d 5 5 5 -0.5 4.64686e-14 0.866025
d 5 5 5 -0.866025 8.04859e-14 0.5
d 5 5 5 -1 9.29371e-14 4.64686e-14
d 5 5 5 -0.866025 8.04859e-14 -0.5
d 5 5 5 -0.5 4.64686e-14 -0.866025
d 5 5 5 -0 -0 1
d 5 5 5 -0.433013 -0.25 0.866025
d 5 5 5 -0.75 -0.433013 0.5
d 5 5 5 -0.866025 -0.5 4.64686e-14
d 5 5 5 -0.75 -0.433013 -0.5
d 5 5 5 -0.433013 -0.25 -0.866025
d 5 5 5 -0 -0 1
d 5 5 5 -0.25 -0.433013 0.866025
d 5 5 5 -0.433013 -0.75 0.5
d 5 5 5 -0.5 -0.866025 4.64686e-14
d 5 5 5 -0.433013 -0.75 -0.5
d 5 5 5 -0.25 -0.433013 -0.866025
d 5 5 5 -0 -0 1
d 5 5 5 -6.98139e-14 -0.5 0.866025
d 5 5 5 -1.20921e-13 -0.866025 0.5
d 5 5 5 -1.39628e-13 -1 4.64686e-14
d 5 5 5 -1.20921e-13 -0.866025 -0.5
d 5 5 5 -6.98139e-14 -0.5 -0.866025
d 5 5 5 0 -0 1
d 5 5 5 0.25 -0.433013 0.866025
d 5 5 5 0.433013 -0.75 0.5
d 5 5 5 0.5 -0.866025 4.64686e-14
d 5 5 5 0.433013 -0.75 -0.5
d 5 5 5 0.25 -0.433013 -0.866025
d 5 5 5 0 -0 1
d 5 5 5 0.433013 -0.25 0.866025
d 5 5 5 0.75 -0.433013 0.5
d 5 5 5 0.866025 -0.5 4.64686e-14
d 5 5 5 0.75 -0.433013 -0.5
d 5 5 5 0.433013 -0.25 -0.866025
