99
Liquid Crystals with Colloide in temperature=0.5, and potential=-7.60948e-23
Sp 2.25219 1.25771 0.127631 -0.668217 -0.740983 -0.066567
Sp 1.5309 2.2059 0.251864 0.877894 -0.129907 -0.460897
Sp 1.14144 2.10688 -0.445978 0.151757 -0.389833 0.908295
Sp -0.293549 2.2296 2.48721 -0.725134 0.237186 -0.64647
Sp 0.423692 1.34442 1.70769 -0.0566765 -0.199903 -0.978175
Sp 2.18577 2.44632 2.08036 -0.327937 0.941292 0.0801707
Sp 2.38668 1.36349 -0.102643 -0.743235 0.659658 0.111595
Sp -0.0960759 1.10838 0.698996 -0.44354 -0.633901 0.633595
Sp 1.40019 2.19729 2.26673 -0.543707 0.0971846 -0.833629
Sp 0.2478 0.416056 0.802777 0.141403 0.126405 0.981849
Sp 2.41396 0.591463 0.422183 -0.147965 0.272187 0.9508
Sp 0.906094 2.34046 -0.341267 -0.0465446 0.685584 -0.726504
Sp 1.3492 0.312988 1.31099 -0.178598 -0.535393 -0.825504
Sp 1.14824 1.0477 0.997553 -0.779384 -0.514855 -0.357052
Sp 0.750905 -0.0168017 1.45518 -0.391374 -0.731473 -0.558367
Sp 1.66072 0.404646 2.30261 -0.606783 0.681046 0.409866
Sp 1.3811 1.88764 -0.30206 0.0250072 -0.169575 0.9852
Sp -0.101124 0.322553 0.500817 -0.412682 -0.786716 0.459099
Sp -0.0210624 2.23157 1.15428 -0.906302 -0.0525041 0.419357
Sp 1.25688 0.147841 1.61335 0.747254 0.659391 0.0825551
Sp -0.322907 1.89304 1.51938 0.0374312 0.0450549 -0.998283
Sp -0.0380042 1.0104 1.15731 -0.607187 0.30119 0.735261
Sp 0.160412 2.08205 0.503058 -0.168796 0.78417 0.597148
Sp 0.437854 0.813062 1.10429 -0.924764 -0.0566763 -0.376296
Sp 0.101314 2.13498 0.0863077 0.20928 0.192338 -0.958753
Sp 0.720213 0.279444 0.222245 -0.205904 0.298608 0.9319
Sp 0.403175 2.34839 1.84363 0.316246 -0.071421 0.945985
d 5 5 5 0 0 1
d 5 5 5 0.5 0 0.866025
d 5 5 5 0.866025 0 0.5
d 5 5 5 1 0 4.64686e-14
d 5 5 5 0.866025 0 -0.5
d 5 5 5 0.5 0 -0.866025
d 5 5 5 0 0 1
d 5 5 5 0.433013 0.25 0.866025
d 5 5 5 0.75 0.433013 0.5
d 5 5 5 0.866025 0.5 4.64686e-14
d 5 5 5 0.75 0.433013 -0.5
d 5 5 5 0.433013 0.25 -0.866025
d 5 5 5 0 0 1
d 5 5 5 0.25 0.433013 0.866025
d 5 5 5 0.433013 0.75 0.5
d 5 5 5 0.5 0.866025 4.64686e-14
d 5 5 5 0.433013 0.75 -0.5
d 5 5 5 0.25 0.433013 -0.866025
d 5 5 5 0 0 1
d 5 5 5 2.32343e-14 0.5 0.866025
d 5 5 5 4.02429e-14 0.866025 0.5
d 5 5 5 4.64686e-14 1 4.64686e-14
d 5 5 5 4.02429e-14 0.866025 -0.5
d 5 5 5 2.32343e-14 0.5 -0.866025
d 5 5 5 -0 0 1
d 5 5 5 -0.25 0.433013 0.866025
d 5 5 5 -0.433013 0.75 0.5
d 5 5 5 -0.5 0.866025 4.64686e-14
d 5 5 5 -0.433013 0.75 -0.5
d 5 5 5 -0.25 0.433013 -0.866025
d 5 5 5 -0 0 1
d 5 5 5 -0.433013 0.25 0.866025
d 5 5 5 -0.75 0.433013 0.5
d 5 5 5 -0.866025 0.5 4.64686e-14
d 5 5 5 -0.75 0.433013 -0.5
d 5 5 5 -0.433013 0.25 -0.866025
d 5 5 5 -0 0 1
d 5 5 5 -0.5 4.64686e-14 0.866025
d 5 5 5 -0.866025 8.04859e-14 0.5
d 5 5 5 -1 9.29371e-14 4.64686e-14
d 5 5 5 -0.866025 8.04859e-14 -0.5
d 5 5 5 -0.5 4.64686e-14 -0.866025
d 5 5 5 -0 -0 1
d 5 5 5 -0.433013 -0.25 0.866025
d 5 5 5 -0.75 -0.433013 0.5
d 5 5 5 -0.866025 -0.5 4.64686e-14
d 5 5 5 -0.75 -0.433013 -0.5
d 5 5 5 -0.433013 -0.25 -0.866025
d 5 5 5 -0 -0 1
d 5 5 5 -0.25 -0.433013 0.866025
d 5 5 5 -0.433013 -0.75 0.5
d 5 5 5 -0.5 -0.866025 4.64686e-14
d 5 5 5 -0.433013 -0.75 -0.5
d 5 5 5 -0.25 -0.433013 -0.866025
d 5 5 5 -0 -0 1
d 5 5 5 -6.98139e-14 -0.5 0.866025
d 5 5 5 -1.20921e-13 -0.866025 0.5
d 5 5 5 -1.39628e-13 -1 4.64686e-14
d 5 5 5 -1.20921e-13 -0.866025 -0.5
d 5 5 5 -6.98139e-14 -0.5 -0.866025
d 5 5 5 0 -0 1
d 5 5 5 0.25 -0.433013 0.866025
d 5 5 5 0.433013 -0.75 0.5
d 5 5 5 0.5 -0.866025 4.64686e-14
d 5 5 5 0.433013 -0.75 -0.5
d 5 5 5 0.25 -0.433013 -0.866025
d 5 5 5 0 -0 1
d 5 5 5 0.433013 -0.25 0.866025
d 5 5 5 0.75 -0.433013 0.5
d 5 5 5 0.866025 -0.5 4.64686e-14
d 5 5 5 0.75 -0.433013 -0.5
d 5 5 5 0.433013 -0.25 -0.866025
