99
Liquid Crystals with Colloide in temperature=0.4, and potential=-3.21537e-22
Sp 1.81383 2.42735 -0.459212 -0.114127 -0.977836 -0.175532
Sp 1.82121 0.198791 0.0339612 0.678512 -0.612282 -0.405871
Sp -0.479086 -0.237878 0.11606 0.430728 -0.17392 0.885565
Sp 0.509458 0.404766 2.19524 -0.812956 0.309291 -0.493398
Sp 0.30122 1.38258 1.33017 -0.0783475 -0.17657 -0.981165
Sp -0.273533 0.329407 2.22028 -0.34326 0.924106 0.16793
Sp -0.29026 0.915266 -0.231605 -0.739485 0.666956 0.0912778
Sp 1.3746 0.125679 2.29492 -0.0858708 -0.940243 0.329499
Sp 1.56983 1.71922 2.36381 -0.527258 -0.0180051 -0.849514
Sp 0.776575 0.79659 0.609975 0.264762 0.21979 0.938932
Sp 0.996953 0.964353 0.27615 0.230964 0.364017 0.902301
Sp 2.07083 0.745083 2.05607 0.188859 0.74822 -0.636002
Sp 0.636846 0.507512 1.65507 -0.383339 -0.517304 -0.765145
Sp 1.14824 1.0477 0.997553 -0.779384 -0.514855 -0.357052
Sp 1.29876 -0.273353 0.147602 0.407072 -0.642572 -0.649148
Sp 0.740568 -0.307783 1.19203 -0.168544 -0.144564 0.975036
Sp -0.148533 2.15222 0.366477 0.343558 -0.0640578 0.936944
Sp 1.50413 1.9686 -0.394838 -0.559019 -0.820347 0.120537
Sp 0.457652 1.13902 0.911422 -0.842662 -0.375594 0.385812
Sp 1.81068 0.562779 1.11494 0.743054 0.667475 -0.0484578
Sp 2.48963 2.07242 0.675788 -0.0324214 0.077952 -0.99643
Sp -0.0879098 2.02733 1.3825 -0.59801 -0.145479 0.788175
Sp -0.338757 0.771897 0.637736 -0.320108 0.55586 0.767171
Sp 0.475591 1.34339 1.2138 -0.886112 0.105371 0.451335
Sp 1.60576 2.49634 2.23644 0.448042 0.207453 -0.86961
Sp 1.68388 2.25531 0.143149 0.0402731 0.0546899 0.997691
Sp 1.91102 -0.301323 2.49353 -0.10891 -0.651637 0.750672
d 5 5 5 0 0 1
d 5 5 5 0.5 0 0.866025
d 5 5 5 0.866025 0 0.5
d 5 5 5 1 0 4.64686e-14
d 5 5 5 0.866025 0 -0.5
d 5 5 5 0.5 0 -0.866025
d 5 5 5 0 0 1
d 5 5 5 0.433013 0.25 0.866025
d 5 5 5 0.75 0.433013 0.5
d 5 5 5 0.866025 0.5 4.64686e-14
d 5 5 5 0.75 0.433013 -0.5
d 5 5 5 0.433013 0.25 -0.866025
d 5 5 5 0 0 1
d 5 5 5 0.25 0.433013 0.866025
d 5 5 5 0.433013 0.75 0.5
d 5 5 5 0.5 0.866025 4.64686e-14
d 5 5 5 0.433013 0.75 -0.5
d 5 5 5 0.25 0.433013 -0.866025
d 5 5 5 0 0 1
d 5 5 5 2.32343e-14 0.5 0.866025
d 5 5 5 4.02429e-14 0.866025 0.5
d 5 5 5 4.64686e-14 1 4.64686e-14
d 5 5 5 4.02429e-14 0.866025 -0.5
d 5 5 5 2.32343e-14 0.5 -0.866025
d 5 5 5 -0 0 1
d 5 5 5 -0.25 0.433013 0.866025
d 5 5 5 -0.433013 0.75 0.5
d 5 5 5 -0.5 0.866025 4.64686e-14
d 5 5 5 -0.433013 0.75 -0.5
d 5 5 5 -0.25 0.433013 -0.866025
d 5 5 5 -0 0 1
d 5 5 5 -0.433013 0.25 0.866025
d 5 5 5 -0.75 0.433013 0.5
d 5 5 5 -0.866025 0.5 4.64686e-14
d 5 5 5 -0.75 0.433013 -0.5
d 5 5 5 -0.433013 0.25 -0.866025
d 5 5 5 -0 0 1
d 5 5 5 -0.5 4.64686e-14 0.866025
d 5 5 5 -0.866025 8.04859e-14 0.5
d 5 5 5 -1 9.29371e-14 4.64686e-14
d 5 5 5 -0.866025 8.04859e-14 -0.5
d 5 5 5 -0.5 4.64686e-14 -0.866025
d 5 5 5 -0 -0 1
d 5 5 5 -0.433013 -0.25 0.866025
d 5 5 5 -0.75 -0.433013 0.5
d 5 5 5 -0.866025 -0.5 4.64686e-14
d 5 5 5 -0.75 -0.433013 -0.5
d 5 5 5 -0.433013 -0.25 -0.866025
d 5 5 5 -0 -0 1
d 5 5 5 -0.25 -0.433013 0.866025
d 5 5 5 -0.433013 -0.75 0.5
d 5 5 5 -0.5 -0.866025 4.64686e-14
d 5 5 5 -0.433013 -0.75 -0.5
d 5 5 5 -0.25 -0.433013 -0.866025
d 5 5 5 -0 -0 1
d 5 5 5 -6.98139e-14 -0.5 0.866025
d 5 5 5 -1.20921e-13 -0.866025 0.5
d 5 5 5 -1.39628e-13 -1 4.64686e-14
d 5 5 5 -1.20921e-13 -0.866025 -0.5
d 5 5 5 -6.98139e-14 -0.5 -0.866025
d 5 5 5 0 -0 1
d 5 5 5 0.25 -0.433013 0.866025
d 5 5 5 0.433013 -0.75 0.5
d 5 5 5 0.5 -0.866025 4.64686e-14
d 5 5 5 0.433013 -0.75 -0.5
d 5 5 5 0.25 -0.433013 -0.866025
d 5 5 5 0 -0 1
d 5 5 5 0.433013 -0.25 0.866025
d 5 5 5 0.75 -0.433013 0.5
d 5 5 5 0.866025 -0.5 4.64686e-14
d 5 5 5 0.75 -0.433013 -0.5
d 5 5 5 0.433013 -0.25 -0.866025
