99
Liquid Crystals with Colloide in temperature=3, and potential=-5.4523e-23
Sp 0.330091 1.85995 2.21214 -0.558073 -0.736683 -0.381906
Sp 1.89375 2.22216 -0.337861 0.943934 -0.175927 0.279353
Sp 0.289163 1.10141 2.4727 0.633215 -0.513681 0.57894
Sp 2.45771 0.00907541 -0.207773 -0.662542 0.391969 -0.638277
Sp 0.332505 1.63085 0.294701 -0.0228766 -0.861137 -0.507858
Sp -0.242926 1.66422 0.968699 -0.212948 0.948343 -0.235155
Sp 1.9748 -0.320086 1.25311 -0.8755 0.223194 0.428584
Sp 1.56116 2.00241 0.643845 -0.686573 -0.379812 0.619968
Sp 1.88509 -0.434481 1.58233 -0.613529 0.478172 -0.628437
Sp -0.352357 0.200902 0.88142 0.769803 0.14348 0.621946
Sp 1.33575 -0.150201 1.36784 -0.589203 0.111867 0.800203
Sp 1.61871 2.27067 -0.327625 -0.505636 -0.0436056 -0.861644
Sp 0.796715 0.25686 1.01667 -0.284648 -0.531654 -0.797696
Sp 1.14824 1.0477 0.997553 -0.779384 -0.514855 -0.357052
Sp 2.31042 1.83676 -0.488807 -0.802746 -0.437238 -0.40549
Sp 1.06128 0.292701 2.05064 -0.76336 -0.0266985 0.645421
Sp 1.27099 -0.144199 0.951501 0.096169 -0.818587 0.566274
Sp 2.32225 1.6016 0.312663 0.263209 -0.913941 0.308923
Sp 2.21223 0.877771 1.47016 -0.867611 -0.315418 0.384398
Sp 2.12828 2.38084 2.10231 0.418221 0.834308 0.359195
Sp 2.05949 2.12855 0.382499 -0.0774411 -0.635563 -0.768156
Sp 2.11901 0.349105 1.31172 -0.176954 0.175373 0.968469
Sp 2.4362 0.769532 -0.0878643 0.411247 0.748828 0.519743
Sp 0.475163 0.470596 2.12817 -0.0466988 -0.14901 -0.987732
Sp 1.90443 -0.0131349 1.48408 0.645547 0.377063 -0.664148
Sp 0.969907 1.70748 0.0801811 0.478714 -0.118325 0.869961
Sp 0.177086 2.11268 1.14923 -0.290321 -0.145042 0.945874
d 5 5 5 0 0 1
d 5 5 5 0.5 0 0.866025
d 5 5 5 0.866025 0 0.5
d 5 5 5 1 0 4.64686e-14
d 5 5 5 0.866025 0 -0.5
d 5 5 5 0.5 0 -0.866025
d 5 5 5 0 0 1
d 5 5 5 0.433013 0.25 0.866025
d 5 5 5 0.75 0.433013 0.5
d 5 5 5 0.866025 0.5 4.64686e-14
d 5 5 5 0.75 0.433013 -0.5
d 5 5 5 0.433013 0.25 -0.866025
d 5 5 5 0 0 1
d 5 5 5 0.25 0.433013 0.866025
d 5 5 5 0.433013 0.75 0.5
d 5 5 5 0.5 0.866025 4.64686e-14
d 5 5 5 0.433013 0.75 -0.5
d 5 5 5 0.25 0.433013 -0.866025
d 5 5 5 0 0 1
d 5 5 5 2.32343e-14 0.5 0.866025
d 5 5 5 4.02429e-14 0.866025 0.5
d 5 5 5 4.64686e-14 1 4.64686e-14
d 5 5 5 4.02429e-14 0.866025 -0.5
d 5 5 5 2.32343e-14 0.5 -0.866025
d 5 5 5 -0 0 1
d 5 5 5 -0.25 0.433013 0.866025
d 5 5 5 -0.433013 0.75 0.5
d 5 5 5 -0.5 0.866025 4.64686e-14
d 5 5 5 -0.433013 0.75 -0.5
d 5 5 5 -0.25 0.433013 -0.866025
d 5 5 5 -0 0 1
d 5 5 5 -0.433013 0.25 0.866025
d 5 5 5 -0.75 0.433013 0.5
d 5 5 5 -0.866025 0.5 4.64686e-14
d 5 5 5 -0.75 0.433013 -0.5
d 5 5 5 -0.433013 0.25 -0.866025
d 5 5 5 -0 0 1
d 5 5 5 -0.5 4.64686e-14 0.866025
d 5 5 5 -0.866025 8.04859e-14 0.5
d 5 5 5 -1 9.29371e-14 4.64686e-14
d 5 5 5 -0.866025 8.04859e-14 -0.5
d 5 5 5 -0.5 4.64686e-14 -0.866025
d 5 5 5 -0 -0 1
d 5 5 5 -0.433013 -0.25 0.866025
d 5 5 5 -0.75 -0.433013 0.5
d 5 5 5 -0.866025 -0.5 4.64686e-14
d 5 5 5 -0.75 -0.433013 -0.5
d 5 5 5 -0.433013 -0.25 -0.866025
d 5 5 5 -0 -0 1
d 5 5 5 -0.25 -0.433013 0.866025
d 5 5 5 -0.433013 -0.75 0.5
d 5 5 5 -0.5 -0.866025 4.64686e-14
d 5 5 5 -0.433013 -0.75 -0.5
d 5 5 5 -0.25 -0.433013 -0.866025
d 5 5 5 -0 -0 1
d 5 5 5 -6.98139e-14 -0.5 0.866025
d 5 5 5 -1.20921e-13 -0.866025 0.5
d 5 5 5 -1.39628e-13 -1 4.64686e-14
d 5 5 5 -1.20921e-13 -0.866025 -0.5
d 5 5 5 -6.98139e-14 -0.5 -0.866025
d 5 5 5 0 -0 1
d 5 5 5 0.25 -0.433013 0.866025
d 5 5 5 0.433013 -0.75 0.5
d 5 5 5 0.5 -0.866025 4.64686e-14
d 5 5 5 0.433013 -0.75 -0.5
d 5 5 5 0.25 -0.433013 -0.866025
d 5 5 5 0 -0 1
d 5 5 5 0.433013 -0.25 0.866025
d 5 5 5 0.75 -0.433013 0.5
d 5 5 5 0.866025 -0.5 4.64686e-14
d 5 5 5 0.75 -0.433013 -0.5
d 5 5 5 0.433013 -0.25 -0.866025
