99
Liquid Crystals with Colloide in temperature=0.8, and potential=-3.86253e-23
Sp 1.98492 0.885025 0.298131 -0.664747 -0.746771 -0.0210995
Sp 1.89895 0.423553 0.158889 0.878262 0.167378 -0.44793
Sp 1.25239 1.65547 -0.00910237 0.16703 -0.450359 0.877085
Sp -0.324314 2.27609 -0.290235 -0.753554 0.261472 -0.60315
Sp -0.313706 1.60459 1.02011 -0.203959 -0.0992857 -0.973932
Sp 2.25166 2.40987 1.74547 -0.321009 0.947075 0.00132926
Sp -0.47314 1.29974 -0.0574866 -0.734115 0.659968 0.159742
Sp -0.281149 2.15601 0.51904 -0.565237 -0.448979 0.692044
Sp 1.49279 2.29765 2.31571 -0.527267 0.122062 -0.840887
Sp -0.418755 0.790829 0.218129 -0.0310382 0.236925 0.971032
Sp 1.98893 0.442436 0.491135 -0.244447 0.229739 0.942054
Sp 1.03913 0.647256 -0.486154 -0.0343172 0.382287 -0.923406
Sp 0.604556 -0.0186798 1.9991 -0.38666 -0.642314 -0.66176
Sp 1.14824 1.0477 0.997553 -0.779384 -0.514855 -0.357052
Sp 1.28987 0.264342 1.58008 -0.286655 -0.750945 -0.594904
Sp 1.80073 1.80526 0.0625443 -0.658499 0.336341 0.673241
Sp 2.45073 1.86506 -0.267314 0.306719 -0.169225 0.936636
Sp -0.394098 0.277413 0.33459 -0.469142 -0.784989 0.404596
Sp -0.185446 0.755764 1.22757 -0.83516 -0.393613 0.384158
Sp 0.515 0.304053 1.37886 0.628198 0.777598 0.0265964
Sp 0.244303 0.483317 -0.485466 0.189293 -0.332719 -0.923832
Sp -0.102912 2.42377 1.07701 -0.519433 0.596597 0.611769
Sp 0.234742 -0.229779 -0.276104 -0.14809 0.932059 0.330659
Sp 0.214591 0.402916 0.304672 -0.833503 -0.153792 -0.53068
Sp 0.590557 -0.404223 0.439146 0.334488 0.292922 -0.89572
Sp 1.93958 -0.417471 -0.167677 0.0687768 0.177327 0.981746
Sp 0.639877 0.146478 2.19719 0.332526 0.138617 0.932851
d 5 5 5 0 0 1
d 5 5 5 0.5 0 0.866025
d 5 5 5 0.866025 0 0.5
d 5 5 5 1 0 4.64686e-14
d 5 5 5 0.866025 0 -0.5
d 5 5 5 0.5 0 -0.866025
d 5 5 5 0 0 1
d 5 5 5 0.433013 0.25 0.866025
d 5 5 5 0.75 0.433013 0.5
d 5 5 5 0.866025 0.5 4.64686e-14
d 5 5 5 0.75 0.433013 -0.5
d 5 5 5 0.433013 0.25 -0.866025
d 5 5 5 0 0 1
d 5 5 5 0.25 0.433013 0.866025
d 5 5 5 0.433013 0.75 0.5
d 5 5 5 0.5 0.866025 4.64686e-14
d 5 5 5 0.433013 0.75 -0.5
d 5 5 5 0.25 0.433013 -0.866025
d 5 5 5 0 0 1
d 5 5 5 2.32343e-14 0.5 0.866025
d 5 5 5 4.02429e-14 0.866025 0.5
d 5 5 5 4.64686e-14 1 4.64686e-14
d 5 5 5 4.02429e-14 0.866025 -0.5
d 5 5 5 2.32343e-14 0.5 -0.866025
d 5 5 5 -0 0 1
d 5 5 5 -0.25 0.433013 0.866025
d 5 5 5 -0.433013 0.75 0.5
d 5 5 5 -0.5 0.866025 4.64686e-14
d 5 5 5 -0.433013 0.75 -0.5
d 5 5 5 -0.25 0.433013 -0.866025
d 5 5 5 -0 0 1
d 5 5 5 -0.433013 0.25 0.866025
d 5 5 5 -0.75 0.433013 0.5
d 5 5 5 -0.866025 0.5 4.64686e-14
d 5 5 5 -0.75 0.433013 -0.5
d 5 5 5 -0.433013 0.25 -0.866025
d 5 5 5 -0 0 1
d 5 5 5 -0.5 4.64686e-14 0.866025
d 5 5 5 -0.866025 8.04859e-14 0.5
d 5 5 5 -1 9.29371e-14 4.64686e-14
d 5 5 5 -0.866025 8.04859e-14 -0.5
d 5 5 5 -0.5 4.64686e-14 -0.866025
d 5 5 5 -0 -0 1
d 5 5 5 -0.433013 -0.25 0.866025
d 5 5 5 -0.75 -0.433013 0.5
d 5 5 5 -0.866025 -0.5 4.64686e-14
d 5 5 5 -0.75 -0.433013 -0.5
d 5 5 5 -0.433013 -0.25 -0.866025
d 5 5 5 -0 -0 1
d 5 5 5 -0.25 -0.433013 0.866025
d 5 5 5 -0.433013 -0.75 0.5
d 5 5 5 -0.5 -0.866025 4.64686e-14
d 5 5 5 -0.433013 -0.75 -0.5
d 5 5 5 -0.25 -0.433013 -0.866025
d 5 5 5 -0 -0 1
d 5 5 5 -6.98139e-14 -0.5 0.866025
d 5 5 5 -1.20921e-13 -0.866025 0.5
d 5 5 5 -1.39628e-13 -1 4.64686e-14
d 5 5 5 -1.20921e-13 -0.866025 -0.5
d 5 5 5 -6.98139e-14 -0.5 -0.866025
d 5 5 5 0 -0 1
d 5 5 5 0.25 -0.433013 0.866025
d 5 5 5 0.433013 -0.75 0.5
d 5 5 5 0.5 -0.866025 4.64686e-14
d 5 5 5 0.433013 -0.75 -0.5
d 5 5 5 0.25 -0.433013 -0.866025
d 5 5 5 0 -0 1
d 5 5 5 0.433013 -0.25 0.866025
d 5 5 5 0.75 -0.433013 0.5
d 5 5 5 0.866025 -0.5 4.64686e-14
d 5 5 5 0.75 -0.433013 -0.5
d 5 5 5 0.433013 -0.25 -0.866025
