99
Liquid Crystals with Colloide in temperature=0.2, and potential=-2.82204e-22
Sp 1.854 -0.0917354 -0.171208 -0.108846 -0.988215 -0.107624
Sp 0.210432 1.81635 -0.0819566 0.699306 -0.620347 -0.355164
Sp 2.29203 0.829818 -0.440337 0.364377 -0.604245 0.708603
Sp -0.115073 -0.414082 0.356176 -0.689331 0.0729772 -0.720762
Sp 0.30122 1.38258 1.33017 -0.0783475 -0.17657 -0.981165
Sp -0.138209 0.650496 1.33789 -0.225564 0.79247 0.566667
Sp 2.00461 1.40382 -0.165801 -0.257928 0.958021 0.125173
Sp 1.97169 1.77177 -0.447266 0.0613979 -0.826488 0.559597
Sp 1.57405 1.64981 2.3787 -0.527563 -0.03653 -0.84873
Sp 0.776575 0.79659 0.609975 0.264762 0.21979 0.938932
Sp 1.02047 0.174519 0.463117 0.219762 0.176424 0.959468
Sp 2.00765 0.637839 2.30412 0.184926 0.768109 -0.613034
Sp 0.562905 0.760226 2.13706 -0.454028 -0.513124 -0.728397
Sp 1.14824 1.0477 0.997553 -0.779384 -0.514855 -0.357052
Sp -0.161681 2.2094 0.948382 0.667019 -0.639755 -0.381836
Sp 0.990753 2.2286 -0.325307 -0.0409027 -0.182468 0.982361
Sp 0.369171 1.76005 1.61966 0.353868 -0.119268 0.92766
Sp 1.66803 1.98338 -0.13722 0.406794 -0.890496 0.203803
Sp 2.13797 0.407708 1.14798 -0.866841 -0.399984 0.297657
Sp 1.81068 0.562779 1.11494 0.743054 0.667475 -0.0484578
Sp 2.48963 2.07242 0.675788 -0.0324214 0.077952 -0.99643
Sp 0.0976164 2.04697 2.25684 -0.46302 -0.106435 0.879934
Sp 1.03444 2.45546 0.485375 -0.719662 0.191989 0.667254
Sp 0.475591 1.34339 1.2138 -0.886112 0.105371 0.451335
Sp 1.24744 2.28698 2.36369 0.388797 0.168678 -0.905751
Sp 1.60107 2.41745 0.499663 0.0181652 0.0892744 0.995841
Sp 1.26749 1.76333 0.403861 -0.205114 -0.658991 0.723643
d 5 5 5 0 0 1
d 5 5 5 0.5 0 0.866025
d 5 5 5 0.866025 0 0.5
d 5 5 5 1 0 4.64686e-14
d 5 5 5 0.866025 0 -0.5
d 5 5 5 0.5 0 -0.866025
d 5 5 5 0 0 1
d 5 5 5 0.433013 0.25 0.866025
d 5 5 5 0.75 0.433013 0.5
d 5 5 5 0.866025 0.5 4.64686e-14
d 5 5 5 0.75 0.433013 -0.5
d 5 5 5 0.433013 0.25 -0.866025
d 5 5 5 0 0 1
d 5 5 5 0.25 0.433013 0.866025
d 5 5 5 0.433013 0.75 0.5
d 5 5 5 0.5 0.866025 4.64686e-14
d 5 5 5 0.433013 0.75 -0.5
d 5 5 5 0.25 0.433013 -0.866025
d 5 5 5 0 0 1
d 5 5 5 2.32343e-14 0.5 0.866025
d 5 5 5 4.02429e-14 0.866025 0.5
d 5 5 5 4.64686e-14 1 4.64686e-14
d 5 5 5 4.02429e-14 0.866025 -0.5
d 5 5 5 2.32343e-14 0.5 -0.866025
d 5 5 5 -0 0 1
d 5 5 5 -0.25 0.433013 0.866025
d 5 5 5 -0.433013 0.75 0.5
d 5 5 5 -0.5 0.866025 4.64686e-14
d 5 5 5 -0.433013 0.75 -0.5
d 5 5 5 -0.25 0.433013 -0.866025
d 5 5 5 -0 0 1
d 5 5 5 -0.433013 0.25 0.866025
d 5 5 5 -0.75 0.433013 0.5
d 5 5 5 -0.866025 0.5 4.64686e-14
d 5 5 5 -0.75 0.433013 -0.5
d 5 5 5 -0.433013 0.25 -0.866025
d 5 5 5 -0 0 1
d 5 5 5 -0.5 4.64686e-14 0.866025
d 5 5 5 -0.866025 8.04859e-14 0.5
d 5 5 5 -1 9.29371e-14 4.64686e-14
d 5 5 5 -0.866025 8.04859e-14 -0.5
d 5 5 5 -0.5 4.64686e-14 -0.866025
d 5 5 5 -0 -0 1
d 5 5 5 -0.433013 -0.25 0.866025
d 5 5 5 -0.75 -0.433013 0.5
d 5 5 5 -0.866025 -0.5 4.64686e-14
d 5 5 5 -0.75 -0.433013 -0.5
d 5 5 5 -0.433013 -0.25 -0.866025
d 5 5 5 -0 -0 1
d 5 5 5 -0.25 -0.433013 0.866025
d 5 5 5 -0.433013 -0.75 0.5
d 5 5 5 -0.5 -0.866025 4.64686e-14
d 5 5 5 -0.433013 -0.75 -0.5
d 5 5 5 -0.25 -0.433013 -0.866025
d 5 5 5 -0 -0 1
d 5 5 5 -6.98139e-14 -0.5 0.866025
d 5 5 5 -1.20921e-13 -0.866025 0.5
d 5 5 5 -1.39628e-13 -1 4.64686e-14
d 5 5 5 -1.20921e-13 -0.866025 -0.5
d 5 5 5 -6.98139e-14 -0.5 -0.866025
d 5 5 5 0 -0 1
d 5 5 5 0.25 -0.433013 0.866025
d 5 5 5 0.433013 -0.75 0.5
d 5 5 5 0.5 -0.866025 4.64686e-14
d 5 5 5 0.433013 -0.75 -0.5
d 5 5 5 0.25 -0.433013 -0.866025
d 5 5 5 0 -0 1
d 5 5 5 0.433013 -0.25 0.866025
d 5 5 5 0.75 -0.433013 0.5
d 5 5 5 0.866025 -0.5 4.64686e-14
d 5 5 5 0.75 -0.433013 -0.5
d 5 5 5 0.433013 -0.25 -0.866025
