99
Liquid Crystals with Colloide in temperature=0.3, and potential=-3.0317e-22
Sp 2.08835 0.232476 -0.389605 -0.0565419 -0.979435 -0.193674
Sp 2.04059 -0.48798 0.68877 0.671181 -0.711474 -0.208136
Sp 2.27248 1.83406 -0.014496 0.376253 -0.384293 0.843062
Sp 0.480989 2.06943 -0.332417 -0.90609 -0.00848451 -0.423
Sp 0.30122 1.38258 1.33017 -0.0783475 -0.17657 -0.981165
Sp -0.299312 0.137175 1.70939 -0.276405 0.676321 0.682781
Sp 1.41478 1.59756 -0.485246 -0.378073 0.924893 0.0404263
Sp 1.86462 1.52228 -0.492803 0.0320459 -0.85184 0.522821
Sp 1.77424 1.48664 2.48438 -0.501087 -0.0790378 -0.86178
Sp 0.776575 0.79659 0.609975 0.264762 0.21979 0.938932
Sp 1.09669 0.312368 0.816995 0.227271 0.188007 0.955511
Sp 2.06347 0.611434 2.14703 0.194767 0.744423 -0.638671
Sp 0.562905 0.760226 2.13706 -0.454028 -0.513124 -0.728397
Sp 1.14824 1.0477 0.997553 -0.779384 -0.514855 -0.357052
Sp 1.90285 -0.223668 1.00985 0.604206 -0.654845 -0.453998
Sp 0.0638317 2.39456 -0.460517 -0.270504 -0.142292 0.952145
Sp 0.369171 1.76005 1.61966 0.353868 -0.119268 0.92766
Sp 0.595252 0.650359 0.247426 0.0709929 -0.963818 0.256934
Sp -0.00948609 0.221301 1.12008 -0.782199 -0.524113 0.336853
Sp 1.81068 0.562779 1.11494 0.743054 0.667475 -0.0484578
Sp 2.48963 2.07242 0.675788 -0.0324214 0.077952 -0.99643
Sp 0.0782825 1.72561 2.02782 -0.48247 -0.192409 0.854518
Sp 1.24829 0.536072 0.480781 -0.62897 0.450302 0.633739
Sp 0.475591 1.34339 1.2138 -0.886112 0.105371 0.451335
Sp 1.24744 2.28698 2.36369 0.388797 0.168678 -0.905751
Sp 1.68388 2.25531 0.143149 0.0402731 0.0546899 0.997691
Sp 1.32626 1.86928 0.442723 -0.193108 -0.641095 0.74277
d 5 5 5 0 0 1
d 5 5 5 0.5 0 0.866025
d 5 5 5 0.866025 0 0.5
d 5 5 5 1 0 4.64686e-14
d 5 5 5 0.866025 0 -0.5
d 5 5 5 0.5 0 -0.866025
d 5 5 5 0 0 1
d 5 5 5 0.433013 0.25 0.866025
d 5 5 5 0.75 0.433013 0.5
d 5 5 5 0.866025 0.5 4.64686e-14
d 5 5 5 0.75 0.433013 -0.5
d 5 5 5 0.433013 0.25 -0.866025
d 5 5 5 0 0 1
d 5 5 5 0.25 0.433013 0.866025
d 5 5 5 0.433013 0.75 0.5
d 5 5 5 0.5 0.866025 4.64686e-14
d 5 5 5 0.433013 0.75 -0.5
d 5 5 5 0.25 0.433013 -0.866025
d 5 5 5 0 0 1
d 5 5 5 2.32343e-14 0.5 0.866025
d 5 5 5 4.02429e-14 0.866025 0.5
d 5 5 5 4.64686e-14 1 4.64686e-14
d 5 5 5 4.02429e-14 0.866025 -0.5
d 5 5 5 2.32343e-14 0.5 -0.866025
d 5 5 5 -0 0 1
d 5 5 5 -0.25 0.433013 0.866025
d 5 5 5 -0.433013 0.75 0.5
d 5 5 5 -0.5 0.866025 4.64686e-14
d 5 5 5 -0.433013 0.75 -0.5
d 5 5 5 -0.25 0.433013 -0.866025
d 5 5 5 -0 0 1
d 5 5 5 -0.433013 0.25 0.866025
d 5 5 5 -0.75 0.433013 0.5
d 5 5 5 -0.866025 0.5 4.64686e-14
d 5 5 5 -0.75 0.433013 -0.5
d 5 5 5 -0.433013 0.25 -0.866025
d 5 5 5 -0 0 1
d 5 5 5 -0.5 4.64686e-14 0.866025
d 5 5 5 -0.866025 8.04859e-14 0.5
d 5 5 5 -1 9.29371e-14 4.64686e-14
d 5 5 5 -0.866025 8.04859e-14 -0.5
d 5 5 5 -0.5 4.64686e-14 -0.866025
d 5 5 5 -0 -0 1
d 5 5 5 -0.433013 -0.25 0.866025
d 5 5 5 -0.75 -0.433013 0.5
d 5 5 5 -0.866025 -0.5 4.64686e-14
d 5 5 5 -0.75 -0.433013 -0.5
d 5 5 5 -0.433013 -0.25 -0.866025
d 5 5 5 -0 -0 1
d 5 5 5 -0.25 -0.433013 0.866025
d 5 5 5 -0.433013 -0.75 0.5
d 5 5 5 -0.5 -0.866025 4.64686e-14
d 5 5 5 -0.433013 -0.75 -0.5
d 5 5 5 -0.25 -0.433013 -0.866025
d 5 5 5 -0 -0 1
d 5 5 5 -6.98139e-14 -0.5 0.866025
d 5 5 5 -1.20921e-13 -0.866025 0.5
d 5 5 5 -1.39628e-13 -1 4.64686e-14
d 5 5 5 -1.20921e-13 -0.866025 -0.5
d 5 5 5 -6.98139e-14 -0.5 -0.866025
d 5 5 5 0 -0 1
d 5 5 5 0.25 -0.433013 0.866025
d 5 5 5 0.433013 -0.75 0.5
d 5 5 5 0.5 -0.866025 4.64686e-14
d 5 5 5 0.433013 -0.75 -0.5
d 5 5 5 0.25 -0.433013 -0.866025
d 5 5 5 0 -0 1
d 5 5 5 0.433013 -0.25 0.866025
d 5 5 5 0.75 -0.433013 0.5
d 5 5 5 0.866025 -0.5 4.64686e-14
d 5 5 5 0.75 -0.433013 -0.5
d 5 5 5 0.433013 -0.25 -0.866025
