99
Liquid Crystals with Colloide in temperature=0.5, and potential=-1.23344e-22
Sp 0.799091 1.79525 0.482027 -0.480815 -0.87677 0.00949349
Sp -0.242611 0.108975 0.351749 0.81447 -0.522378 -0.252508
Sp 2.01048 1.94532 -0.0796514 0.33023 -0.376133 0.865721
Sp -0.318728 2.41926 0.220336 -0.798526 0.294141 -0.525202
Sp 0.30122 1.38258 1.33017 -0.0783475 -0.17657 -0.981165
Sp 2.03865 2.0117 1.87574 -0.397867 0.916972 0.0294036
Sp 1.89463 1.20284 0.184417 -0.806187 0.563009 0.18189
Sp 0.347352 0.726259 -0.281537 -0.198671 -0.500907 0.842391
Sp 1.69188 1.5641 2.47289 -0.516414 -0.0584609 -0.854341
Sp 0.776575 0.79659 0.609975 0.264762 0.21979 0.938932
Sp 2.45273 0.238163 0.272692 -0.15393 0.200864 0.96745
Sp 0.720949 -0.115061 -0.172381 -0.101061 0.767585 -0.63293
Sp 0.469324 0.526017 1.76709 -0.427717 -0.516049 -0.742127
Sp 1.14824 1.0477 0.997553 -0.779384 -0.514855 -0.357052
Sp 0.168789 0.182014 -0.241204 -0.579964 -0.775534 -0.249377
Sp -0.10467 2.44672 0.376505 -0.384267 0.558405 0.735203
Sp 0.117053 1.57424 0.227557 0.404056 -0.213029 0.889583
Sp 1.55093 1.978 0.100996 -0.543181 -0.805739 0.236093
Sp 0.147968 0.47257 1.83657 -0.729439 -0.449741 0.515414
Sp 0.831295 -0.438532 2.12563 0.759683 0.606752 0.233951
Sp -0.0773671 0.819618 0.792425 0.0879993 -0.238793 -0.967075
Sp 0.181947 -0.0157696 0.851281 -0.638958 0.0598002 0.766914
Sp 0.0581354 2.02561 1.26477 -0.170034 0.682079 0.711236
Sp -0.430338 1.37827 2.03045 -0.990529 0.0730436 -0.116264
Sp 1.3975 1.87642 0.498615 0.530191 0.108782 -0.840871
Sp 0.938722 2.35466 -0.0076472 -0.157391 0.0690714 0.985118
Sp 0.0730994 1.31614 0.0381276 0.178073 -0.263856 0.947982
d 5 5 5 0 0 1
d 5 5 5 0.5 0 0.866025
d 5 5 5 0.866025 0 0.5
d 5 5 5 1 0 4.64686e-14
d 5 5 5 0.866025 0 -0.5
d 5 5 5 0.5 0 -0.866025
d 5 5 5 0 0 1
d 5 5 5 0.433013 0.25 0.866025
d 5 5 5 0.75 0.433013 0.5
d 5 5 5 0.866025 0.5 4.64686e-14
d 5 5 5 0.75 0.433013 -0.5
d 5 5 5 0.433013 0.25 -0.866025
d 5 5 5 0 0 1
d 5 5 5 0.25 0.433013 0.866025
d 5 5 5 0.433013 0.75 0.5
d 5 5 5 0.5 0.866025 4.64686e-14
d 5 5 5 0.433013 0.75 -0.5
d 5 5 5 0.25 0.433013 -0.866025
d 5 5 5 0 0 1
d 5 5 5 2.32343e-14 0.5 0.866025
d 5 5 5 4.02429e-14 0.866025 0.5
d 5 5 5 4.64686e-14 1 4.64686e-14
d 5 5 5 4.02429e-14 0.866025 -0.5
d 5 5 5 2.32343e-14 0.5 -0.866025
d 5 5 5 -0 0 1
d 5 5 5 -0.25 0.433013 0.866025
d 5 5 5 -0.433013 0.75 0.5
d 5 5 5 -0.5 0.866025 4.64686e-14
d 5 5 5 -0.433013 0.75 -0.5
d 5 5 5 -0.25 0.433013 -0.866025
d 5 5 5 -0 0 1
d 5 5 5 -0.433013 0.25 0.866025
d 5 5 5 -0.75 0.433013 0.5
d 5 5 5 -0.866025 0.5 4.64686e-14
d 5 5 5 -0.75 0.433013 -0.5
d 5 5 5 -0.433013 0.25 -0.866025
d 5 5 5 -0 0 1
d 5 5 5 -0.5 4.64686e-14 0.866025
d 5 5 5 -0.866025 8.04859e-14 0.5
d 5 5 5 -1 9.29371e-14 4.64686e-14
d 5 5 5 -0.866025 8.04859e-14 -0.5
d 5 5 5 -0.5 4.64686e-14 -0.866025
d 5 5 5 -0 -0 1
d 5 5 5 -0.433013 -0.25 0.866025
d 5 5 5 -0.75 -0.433013 0.5
d 5 5 5 -0.866025 -0.5 4.64686e-14
d 5 5 5 -0.75 -0.433013 -0.5
d 5 5 5 -0.433013 -0.25 -0.866025
d 5 5 5 -0 -0 1
d 5 5 5 -0.25 -0.433013 0.866025
d 5 5 5 -0.433013 -0.75 0.5
d 5 5 5 -0.5 -0.866025 4.64686e-14
d 5 5 5 -0.433013 -0.75 -0.5
d 5 5 5 -0.25 -0.433013 -0.866025
d 5 5 5 -0 -0 1
d 5 5 5 -6.98139e-14 -0.5 0.866025
d 5 5 5 -1.20921e-13 -0.866025 0.5
d 5 5 5 -1.39628e-13 -1 4.64686e-14
d 5 5 5 -1.20921e-13 -0.866025 -0.5
d 5 5 5 -6.98139e-14 -0.5 -0.866025
d 5 5 5 0 -0 1
d 5 5 5 0.25 -0.433013 0.866025
d 5 5 5 0.433013 -0.75 0.5
d 5 5 5 0.5 -0.866025 4.64686e-14
d 5 5 5 0.433013 -0.75 -0.5
d 5 5 5 0.25 -0.433013 -0.866025
d 5 5 5 0 -0 1
d 5 5 5 0.433013 -0.25 0.866025
d 5 5 5 0.75 -0.433013 0.5
d 5 5 5 0.866025 -0.5 4.64686e-14
d 5 5 5 0.75 -0.433013 -0.5
d 5 5 5 0.433013 -0.25 -0.866025
