99
Liquid Crystals with Colloide in temperature=0.3, and potential=-3.19181e-22
Sp 1.81383 2.42735 -0.459212 -0.114127 -0.977836 -0.175532
Sp 1.74235 2.43622 0.402097 0.606319 -0.742202 -0.285506
Sp 2.30496 2.1537 -0.0952225 0.404381 -0.318675 0.857276
Sp 0.460406 2.25203 2.32408 -0.871847 0.0362237 -0.488437
Sp 0.30122 1.38258 1.33017 -0.0783475 -0.17657 -0.981165
Sp -0.407891 -0.433722 1.2365 -0.35319 0.64141 0.681066
Sp 1.16862 2.14746 0.0790374 -0.384027 0.907273 0.171402
Sp 1.93116 1.8016 -0.489782 0.054315 -0.828976 0.556641
Sp 1.77424 1.48664 2.48438 -0.501087 -0.0790378 -0.86178
Sp 0.776575 0.79659 0.609975 0.264762 0.21979 0.938932
Sp 0.960472 0.283549 0.322918 0.222792 0.204113 0.953258
Sp 2.06347 0.611434 2.14703 0.194767 0.744423 -0.638671
Sp 0.636846 0.507512 1.65507 -0.383339 -0.517304 -0.765145
Sp 1.14824 1.0477 0.997553 -0.779384 -0.514855 -0.357052
Sp 1.60567 2.35628 0.477329 0.467639 -0.701094 -0.538314
Sp 0.373269 1.9525 2.41415 -0.198053 -0.258771 0.945417
Sp 0.369171 1.76005 1.61966 0.353868 -0.119268 0.92766
Sp 0.598259 0.681222 -0.15201 0.0731561 -0.98391 0.162999
Sp 0.329789 1.46433 1.23831 -0.845473 -0.284458 0.45195
Sp 1.81068 0.562779 1.11494 0.743054 0.667475 -0.0484578
Sp 2.48963 2.07242 0.675788 -0.0324214 0.077952 -0.99643
Sp 0.0110711 1.9287 -0.452084 -0.448887 -0.118522 0.885693
Sp 1.3479 0.107514 0.709005 -0.61512 0.35251 0.70524
Sp 0.475591 1.34339 1.2138 -0.886112 0.105371 0.451335
Sp 1.44675 2.42901 2.27442 0.420485 0.196314 -0.885806
Sp 1.68388 2.25531 0.143149 0.0402731 0.0546899 0.997691
Sp 1.2531 1.77589 0.380494 -0.209953 -0.659645 0.721656
d 5 5 5 0 0 1
d 5 5 5 0.5 0 0.866025
d 5 5 5 0.866025 0 0.5
d 5 5 5 1 0 4.64686e-14
d 5 5 5 0.866025 0 -0.5
d 5 5 5 0.5 0 -0.866025
d 5 5 5 0 0 1
d 5 5 5 0.433013 0.25 0.866025
d 5 5 5 0.75 0.433013 0.5
d 5 5 5 0.866025 0.5 4.64686e-14
d 5 5 5 0.75 0.433013 -0.5
d 5 5 5 0.433013 0.25 -0.866025
d 5 5 5 0 0 1
d 5 5 5 0.25 0.433013 0.866025
d 5 5 5 0.433013 0.75 0.5
d 5 5 5 0.5 0.866025 4.64686e-14
d 5 5 5 0.433013 0.75 -0.5
d 5 5 5 0.25 0.433013 -0.866025
d 5 5 5 0 0 1
d 5 5 5 2.32343e-14 0.5 0.866025
d 5 5 5 4.02429e-14 0.866025 0.5
d 5 5 5 4.64686e-14 1 4.64686e-14
d 5 5 5 4.02429e-14 0.866025 -0.5
d 5 5 5 2.32343e-14 0.5 -0.866025
d 5 5 5 -0 0 1
d 5 5 5 -0.25 0.433013 0.866025
d 5 5 5 -0.433013 0.75 0.5
d 5 5 5 -0.5 0.866025 4.64686e-14
d 5 5 5 -0.433013 0.75 -0.5
d 5 5 5 -0.25 0.433013 -0.866025
d 5 5 5 -0 0 1
d 5 5 5 -0.433013 0.25 0.866025
d 5 5 5 -0.75 0.433013 0.5
d 5 5 5 -0.866025 0.5 4.64686e-14
d 5 5 5 -0.75 0.433013 -0.5
d 5 5 5 -0.433013 0.25 -0.866025
d 5 5 5 -0 0 1
d 5 5 5 -0.5 4.64686e-14 0.866025
d 5 5 5 -0.866025 8.04859e-14 0.5
d 5 5 5 -1 9.29371e-14 4.64686e-14
d 5 5 5 -0.866025 8.04859e-14 -0.5
d 5 5 5 -0.5 4.64686e-14 -0.866025
d 5 5 5 -0 -0 1
d 5 5 5 -0.433013 -0.25 0.866025
d 5 5 5 -0.75 -0.433013 0.5
d 5 5 5 -0.866025 -0.5 4.64686e-14
d 5 5 5 -0.75 -0.433013 -0.5
d 5 5 5 -0.433013 -0.25 -0.866025
d 5 5 5 -0 -0 1
d 5 5 5 -0.25 -0.433013 0.866025
d 5 5 5 -0.433013 -0.75 0.5
d 5 5 5 -0.5 -0.866025 4.64686e-14
d 5 5 5 -0.433013 -0.75 -0.5
d 5 5 5 -0.25 -0.433013 -0.866025
d 5 5 5 -0 -0 1
d 5 5 5 -6.98139e-14 -0.5 0.866025
d 5 5 5 -1.20921e-13 -0.866025 0.5
d 5 5 5 -1.39628e-13 -1 4.64686e-14
d 5 5 5 -1.20921e-13 -0.866025 -0.5
d 5 5 5 -6.98139e-14 -0.5 -0.866025
d 5 5 5 0 -0 1
d 5 5 5 0.25 -0.433013 0.866025
d 5 5 5 0.433013 -0.75 0.5
d 5 5 5 0.5 -0.866025 4.64686e-14
d 5 5 5 0.433013 -0.75 -0.5
d 5 5 5 0.25 -0.433013 -0.866025
d 5 5 5 0 -0 1
d 5 5 5 0.433013 -0.25 0.866025
d 5 5 5 0.75 -0.433013 0.5
d 5 5 5 0.866025 -0.5 4.64686e-14
d 5 5 5 0.75 -0.433013 -0.5
d 5 5 5 0.433013 -0.25 -0.866025
