99
Liquid Crystals with Colloide in temperature=1.5, and potential=-7.50182e-23
Sp 2.06175 1.87643 2.32512 -0.758008 -0.58638 -0.285625
Sp -0.0900047 2.24197 1.99745 0.981569 -0.169713 0.0878651
Sp 1.90651 0.852947 -0.348754 0.329931 -0.612503 0.718321
Sp 2.34751 0.370184 1.01988 -0.821881 0.498816 -0.275125
Sp -0.401647 -0.040818 0.260525 -0.280136 -0.719309 -0.635703
Sp 2.45205 2.23361 1.64557 -0.282194 0.958707 -0.0353178
Sp 0.0778003 -0.196051 1.40473 -0.740122 0.378009 0.556172
Sp -0.0942288 2.30109 2.41689 -0.653712 -0.525076 0.544936
Sp -0.426735 -0.28152 2.21426 -0.318834 0.262568 -0.910715
Sp 0.42356 0.573505 1.46183 0.253119 0.266889 0.929893
Sp 1.60971 -0.228145 2.48563 -0.416575 0.0626535 0.90694
Sp 1.33395 2.4727 2.27733 0.0482734 0.0699547 -0.996381
Sp 1.19099 0.265853 1.77228 -0.247512 -0.626968 -0.73868
Sp 1.14824 1.0477 0.997553 -0.779384 -0.514855 -0.357052
Sp 1.00167 0.328481 -0.358771 -0.399702 -0.833053 -0.382441
Sp 0.235246 -0.484604 0.140859 -0.480544 -0.150123 0.864026
Sp 0.14481 -0.0760859 -0.48369 0.395361 -0.561345 0.727036
Sp 0.165178 -0.333507 0.289048 -0.29195 -0.882946 0.367657
Sp 0.00586872 0.443411 2.39726 -0.684127 -0.404105 0.607181
Sp 0.219814 1.24914 0.952644 0.483093 0.872362 -0.0748776
Sp 0.0030861 0.381918 0.938834 0.176457 -0.465163 -0.86746
Sp -0.0947398 0.798489 1.81621 -0.53953 0.206392 0.816278
Sp 1.41336 1.57227 0.314131 0.14247 0.83672 0.528774
Sp 0.15827 2.38753 2.23713 -0.668247 -0.301174 -0.68025
Sp 0.798217 -0.23644 0.413711 0.363489 0.324429 -0.873282
Sp -0.298877 1.68133 2.32251 0.276064 -0.0658279 0.958882
Sp -0.232674 0.898718 0.25943 0.443191 0.368548 0.817162
d 5 5 5 0 0 1
d 5 5 5 0.5 0 0.866025
d 5 5 5 0.866025 0 0.5
d 5 5 5 1 0 4.64686e-14
d 5 5 5 0.866025 0 -0.5
d 5 5 5 0.5 0 -0.866025
d 5 5 5 0 0 1
d 5 5 5 0.433013 0.25 0.866025
d 5 5 5 0.75 0.433013 0.5
d 5 5 5 0.866025 0.5 4.64686e-14
d 5 5 5 0.75 0.433013 -0.5
d 5 5 5 0.433013 0.25 -0.866025
d 5 5 5 0 0 1
d 5 5 5 0.25 0.433013 0.866025
d 5 5 5 0.433013 0.75 0.5
d 5 5 5 0.5 0.866025 4.64686e-14
d 5 5 5 0.433013 0.75 -0.5
d 5 5 5 0.25 0.433013 -0.866025
d 5 5 5 0 0 1
d 5 5 5 2.32343e-14 0.5 0.866025
d 5 5 5 4.02429e-14 0.866025 0.5
d 5 5 5 4.64686e-14 1 4.64686e-14
d 5 5 5 4.02429e-14 0.866025 -0.5
d 5 5 5 2.32343e-14 0.5 -0.866025
d 5 5 5 -0 0 1
d 5 5 5 -0.25 0.433013 0.866025
d 5 5 5 -0.433013 0.75 0.5
d 5 5 5 -0.5 0.866025 4.64686e-14
d 5 5 5 -0.433013 0.75 -0.5
d 5 5 5 -0.25 0.433013 -0.866025
d 5 5 5 -0 0 1
d 5 5 5 -0.433013 0.25 0.866025
d 5 5 5 -0.75 0.433013 0.5
d 5 5 5 -0.866025 0.5 4.64686e-14
d 5 5 5 -0.75 0.433013 -0.5
d 5 5 5 -0.433013 0.25 -0.866025
d 5 5 5 -0 0 1
d 5 5 5 -0.5 4.64686e-14 0.866025
d 5 5 5 -0.866025 8.04859e-14 0.5
d 5 5 5 -1 9.29371e-14 4.64686e-14
d 5 5 5 -0.866025 8.04859e-14 -0.5
d 5 5 5 -0.5 4.64686e-14 -0.866025
d 5 5 5 -0 -0 1
d 5 5 5 -0.433013 -0.25 0.866025
d 5 5 5 -0.75 -0.433013 0.5
d 5 5 5 -0.866025 -0.5 4.64686e-14
d 5 5 5 -0.75 -0.433013 -0.5
d 5 5 5 -0.433013 -0.25 -0.866025
d 5 5 5 -0 -0 1
d 5 5 5 -0.25 -0.433013 0.866025
d 5 5 5 -0.433013 -0.75 0.5
d 5 5 5 -0.5 -0.866025 4.64686e-14
d 5 5 5 -0.433013 -0.75 -0.5
d 5 5 5 -0.25 -0.433013 -0.866025
d 5 5 5 -0 -0 1
d 5 5 5 -6.98139e-14 -0.5 0.866025
d 5 5 5 -1.20921e-13 -0.866025 0.5
d 5 5 5 -1.39628e-13 -1 4.64686e-14
d 5 5 5 -1.20921e-13 -0.866025 -0.5
d 5 5 5 -6.98139e-14 -0.5 -0.866025
d 5 5 5 0 -0 1
d 5 5 5 0.25 -0.433013 0.866025
d 5 5 5 0.433013 -0.75 0.5
d 5 5 5 0.5 -0.866025 4.64686e-14
d 5 5 5 0.433013 -0.75 -0.5
d 5 5 5 0.25 -0.433013 -0.866025
d 5 5 5 0 -0 1
d 5 5 5 0.433013 -0.25 0.866025
d 5 5 5 0.75 -0.433013 0.5
d 5 5 5 0.866025 -0.5 4.64686e-14
d 5 5 5 0.75 -0.433013 -0.5
d 5 5 5 0.433013 -0.25 -0.866025
