99
Liquid Crystals with Colloide in temperature=0.4, and potential=-1.23238e-22
Sp 1.54927 1.36347 0.368953 -0.274043 -0.961353 -0.0264627
Sp -0.183322 -0.141691 0.569344 0.801641 -0.566556 -0.19075
Sp 0.969296 1.63177 0.316927 0.0581035 -0.426958 0.902403
Sp 2.17102 -0.0634368 0.647478 -0.839997 0.381684 -0.385646
Sp 0.30122 1.38258 1.33017 -0.0783475 -0.17657 -0.981165
Sp 2.2847 2.33378 1.6116 -0.318357 0.947227 -0.0375554
Sp 2.25825 1.13235 0.280261 -0.776273 0.589997 0.222046
Sp 0.482366 0.459109 2.15214 -0.179069 -0.616991 0.766326
Sp 1.54748 1.69405 2.32207 -0.526397 -0.0247455 -0.849879
Sp 0.776575 0.79659 0.609975 0.264762 0.21979 0.938932
Sp -0.115049 -0.34643 0.963366 -0.0326982 0.0489615 0.998265
Sp 1.12364 -0.397455 -0.0993697 -0.00784187 0.746354 -0.665503
Sp 0.469324 0.526017 1.76709 -0.427717 -0.516049 -0.742127
Sp 1.14824 1.0477 0.997553 -0.779384 -0.514855 -0.357052
Sp 1.52965 -0.149679 1.44905 -0.19558 -0.812743 -0.548815
Sp 0.330667 2.40804 1.08428 -0.234563 0.492878 0.837885
Sp -0.299802 1.632 0.806659 0.270372 -0.180269 0.945728
Sp 2.19349 1.54512 -0.240134 -0.380061 -0.911919 0.15478
Sp -0.0610532 1.25973 1.24418 -0.858498 -0.305217 0.412097
Sp 1.62256 -0.0113628 1.32408 0.79879 0.601604 0.0026421
Sp -0.381793 1.42178 0.700082 0.00850509 -0.0894451 -0.995955
Sp 0.848392 0.219308 0.816051 -0.5345 0.134061 0.834468
Sp -0.0115164 -0.197851 1.72379 -0.131727 0.721904 0.67934
Sp -0.149818 1.69104 2.28683 -0.986288 0.156023 -0.0537778
Sp 1.10058 1.99336 0.468714 0.467717 0.141389 -0.872496
Sp 1.181 1.72607 -0.247085 -0.102448 -0.0889842 0.99075
Sp 2.38246 0.606866 -0.304557 -0.0114865 -0.468984 0.883132
d 5 5 5 0 0 1
d 5 5 5 0.5 0 0.866025
d 5 5 5 0.866025 0 0.5
d 5 5 5 1 0 4.64686e-14
d 5 5 5 0.866025 0 -0.5
d 5 5 5 0.5 0 -0.866025
d 5 5 5 0 0 1
d 5 5 5 0.433013 0.25 0.866025
d 5 5 5 0.75 0.433013 0.5
d 5 5 5 0.866025 0.5 4.64686e-14
d 5 5 5 0.75 0.433013 -0.5
d 5 5 5 0.433013 0.25 -0.866025
d 5 5 5 0 0 1
d 5 5 5 0.25 0.433013 0.866025
d 5 5 5 0.433013 0.75 0.5
d 5 5 5 0.5 0.866025 4.64686e-14
d 5 5 5 0.433013 0.75 -0.5
d 5 5 5 0.25 0.433013 -0.866025
d 5 5 5 0 0 1
d 5 5 5 2.32343e-14 0.5 0.866025
d 5 5 5 4.02429e-14 0.866025 0.5
d 5 5 5 4.64686e-14 1 4.64686e-14
d 5 5 5 4.02429e-14 0.866025 -0.5
d 5 5 5 2.32343e-14 0.5 -0.866025
d 5 5 5 -0 0 1
d 5 5 5 -0.25 0.433013 0.866025
d 5 5 5 -0.433013 0.75 0.5
d 5 5 5 -0.5 0.866025 4.64686e-14
d 5 5 5 -0.433013 0.75 -0.5
d 5 5 5 -0.25 0.433013 -0.866025
d 5 5 5 -0 0 1
d 5 5 5 -0.433013 0.25 0.866025
d 5 5 5 -0.75 0.433013 0.5
d 5 5 5 -0.866025 0.5 4.64686e-14
d 5 5 5 -0.75 0.433013 -0.5
d 5 5 5 -0.433013 0.25 -0.866025
d 5 5 5 -0 0 1
d 5 5 5 -0.5 4.64686e-14 0.866025
d 5 5 5 -0.866025 8.04859e-14 0.5
d 5 5 5 -1 9.29371e-14 4.64686e-14
d 5 5 5 -0.866025 8.04859e-14 -0.5
d 5 5 5 -0.5 4.64686e-14 -0.866025
d 5 5 5 -0 -0 1
d 5 5 5 -0.433013 -0.25 0.866025
d 5 5 5 -0.75 -0.433013 0.5
d 5 5 5 -0.866025 -0.5 4.64686e-14
d 5 5 5 -0.75 -0.433013 -0.5
d 5 5 5 -0.433013 -0.25 -0.866025
d 5 5 5 -0 -0 1
d 5 5 5 -0.25 -0.433013 0.866025
d 5 5 5 -0.433013 -0.75 0.5
d 5 5 5 -0.5 -0.866025 4.64686e-14
d 5 5 5 -0.433013 -0.75 -0.5
d 5 5 5 -0.25 -0.433013 -0.866025
d 5 5 5 -0 -0 1
d 5 5 5 -6.98139e-14 -0.5 0.866025
d 5 5 5 -1.20921e-13 -0.866025 0.5
d 5 5 5 -1.39628e-13 -1 4.64686e-14
d 5 5 5 -1.20921e-13 -0.866025 -0.5
d 5 5 5 -6.98139e-14 -0.5 -0.866025
d 5 5 5 0 -0 1
d 5 5 5 0.25 -0.433013 0.866025
d 5 5 5 0.433013 -0.75 0.5
d 5 5 5 0.5 -0.866025 4.64686e-14
d 5 5 5 0.433013 -0.75 -0.5
d 5 5 5 0.25 -0.433013 -0.866025
d 5 5 5 0 -0 1
d 5 5 5 0.433013 -0.25 0.866025
d 5 5 5 0.75 -0.433013 0.5
d 5 5 5 0.866025 -0.5 4.64686e-14
d 5 5 5 0.75 -0.433013 -0.5
d 5 5 5 0.433013 -0.25 -0.866025
