99
Liquid Crystals with Colloide in temperature=0.4, and potential=-3.22936e-22
Sp 1.81383 2.42735 -0.459212 -0.114127 -0.977836 -0.175532
Sp 1.63443 0.604419 0.322502 0.712889 -0.587738 -0.382562
Sp -0.00563145 -0.250626 -0.359548 0.564387 -0.182436 0.805099
Sp 0.509458 0.404766 2.19524 -0.812956 0.309291 -0.493398
Sp 0.30122 1.38258 1.33017 -0.0783475 -0.17657 -0.981165
Sp 0.125835 0.606978 2.4859 -0.241697 0.945188 0.219551
Sp 0.0210536 1.29146 0.0944076 -0.638733 0.749485 0.174047
Sp 1.29277 0.181417 -0.499513 -0.10571 -0.919538 0.378518
Sp 1.56983 1.71922 2.36381 -0.527258 -0.0180051 -0.849514
Sp 0.776575 0.79659 0.609975 0.264762 0.21979 0.938932
Sp 1.12069 0.885495 -0.204648 0.28622 0.375739 0.881418
Sp 2.07083 0.745083 2.05607 0.188859 0.74822 -0.636002
Sp 0.636846 0.507512 1.65507 -0.383339 -0.517304 -0.765145
Sp 1.14824 1.0477 0.997553 -0.779384 -0.514855 -0.357052
Sp 0.741996 -0.29201 0.466991 0.307333 -0.705099 -0.639048
Sp 0.357236 0.122956 0.919445 -0.28105 -0.0428825 0.958735
Sp -0.00528677 2.07472 0.855382 0.338453 -0.0674689 0.938561
Sp 1.56178 1.97583 -0.172621 -0.545277 -0.819521 0.176235
Sp 0.457652 1.13902 0.911422 -0.842662 -0.375594 0.385812
Sp 1.81068 0.562779 1.11494 0.743054 0.667475 -0.0484578
Sp 2.48963 2.07242 0.675788 -0.0324214 0.077952 -0.99643
Sp 0.180606 2.26424 1.71832 -0.516608 -0.0818879 0.852297
Sp 2.45886 1.05451 -0.111701 -0.395924 0.669308 0.628705
Sp 0.475591 1.34339 1.2138 -0.886112 0.105371 0.451335
Sp 1.35339 2.31905 -0.488561 0.428345 0.18228 -0.885039
Sp 1.68388 2.25531 0.143149 0.0402731 0.0546899 0.997691
Sp 1.91102 -0.301323 2.49353 -0.10891 -0.651637 0.750672
d 5 5 5 0 0 1
d 5 5 5 0.5 0 0.866025
d 5 5 5 0.866025 0 0.5
d 5 5 5 1 0 4.64686e-14
d 5 5 5 0.866025 0 -0.5
d 5 5 5 0.5 0 -0.866025
d 5 5 5 0 0 1
d 5 5 5 0.433013 0.25 0.866025
d 5 5 5 0.75 0.433013 0.5
d 5 5 5 0.866025 0.5 4.64686e-14
d 5 5 5 0.75 0.433013 -0.5
d 5 5 5 0.433013 0.25 -0.866025
d 5 5 5 0 0 1
d 5 5 5 0.25 0.433013 0.866025
d 5 5 5 0.433013 0.75 0.5
d 5 5 5 0.5 0.866025 4.64686e-14
d 5 5 5 0.433013 0.75 -0.5
d 5 5 5 0.25 0.433013 -0.866025
d 5 5 5 0 0 1
d 5 5 5 2.32343e-14 0.5 0.866025
d 5 5 5 4.02429e-14 0.866025 0.5
d 5 5 5 4.64686e-14 1 4.64686e-14
d 5 5 5 4.02429e-14 0.866025 -0.5
d 5 5 5 2.32343e-14 0.5 -0.866025
d 5 5 5 -0 0 1
d 5 5 5 -0.25 0.433013 0.866025
d 5 5 5 -0.433013 0.75 0.5
d 5 5 5 -0.5 0.866025 4.64686e-14
d 5 5 5 -0.433013 0.75 -0.5
d 5 5 5 -0.25 0.433013 -0.866025
d 5 5 5 -0 0 1
d 5 5 5 -0.433013 0.25 0.866025
d 5 5 5 -0.75 0.433013 0.5
d 5 5 5 -0.866025 0.5 4.64686e-14
d 5 5 5 -0.75 0.433013 -0.5
d 5 5 5 -0.433013 0.25 -0.866025
d 5 5 5 -0 0 1
d 5 5 5 -0.5 4.64686e-14 0.866025
d 5 5 5 -0.866025 8.04859e-14 0.5
d 5 5 5 -1 9.29371e-14 4.64686e-14
d 5 5 5 -0.866025 8.04859e-14 -0.5
d 5 5 5 -0.5 4.64686e-14 -0.866025
d 5 5 5 -0 -0 1
d 5 5 5 -0.433013 -0.25 0.866025
d 5 5 5 -0.75 -0.433013 0.5
d 5 5 5 -0.866025 -0.5 4.64686e-14
d 5 5 5 -0.75 -0.433013 -0.5
d 5 5 5 -0.433013 -0.25 -0.866025
d 5 5 5 -0 -0 1
d 5 5 5 -0.25 -0.433013 0.866025
d 5 5 5 -0.433013 -0.75 0.5
d 5 5 5 -0.5 -0.866025 4.64686e-14
d 5 5 5 -0.433013 -0.75 -0.5
d 5 5 5 -0.25 -0.433013 -0.866025
d 5 5 5 -0 -0 1
d 5 5 5 -6.98139e-14 -0.5 0.866025
d 5 5 5 -1.20921e-13 -0.866025 0.5
d 5 5 5 -1.39628e-13 -1 4.64686e-14
d 5 5 5 -1.20921e-13 -0.866025 -0.5
d 5 5 5 -6.98139e-14 -0.5 -0.866025
d 5 5 5 0 -0 1
d 5 5 5 0.25 -0.433013 0.866025
d 5 5 5 0.433013 -0.75 0.5
d 5 5 5 0.5 -0.866025 4.64686e-14
d 5 5 5 0.433013 -0.75 -0.5
d 5 5 5 0.25 -0.433013 -0.866025
d 5 5 5 0 -0 1
d 5 5 5 0.433013 -0.25 0.866025
d 5 5 5 0.75 -0.433013 0.5
d 5 5 5 0.866025 -0.5 4.64686e-14
d 5 5 5 0.75 -0.433013 -0.5
d 5 5 5 0.433013 -0.25 -0.866025
