99
Liquid Crystals with Colloide in temperature=0.4, and potential=-2.29358e-22
Sp 1.75159 0.710766 -0.236481 -0.187751 -0.970126 -0.15364
Sp -0.399372 -0.178929 0.220478 0.763754 -0.578108 -0.287177
Sp 1.11394 1.28892 -0.246387 0.0997331 -0.542751 0.833951
Sp 1.25023 0.024103 -0.023278 -0.846331 0.306966 -0.43531
Sp 0.30122 1.38258 1.33017 -0.0783475 -0.17657 -0.981165
Sp 2.32315 1.69707 1.97814 -0.363547 0.929636 0.060092
Sp 2.46702 1.919 0.486352 -0.628348 0.733415 0.259387
Sp 0.0389822 0.710395 1.23467 -0.336268 -0.663111 0.668736
Sp 1.54748 1.69405 2.32207 -0.526397 -0.0247455 -0.849879
Sp 0.776575 0.79659 0.609975 0.264762 0.21979 0.938932
Sp 0.998067 0.125929 0.299904 0.24454 0.181613 0.952479
Sp 1.93066 0.150434 2.33101 0.180637 0.719327 -0.670775
Sp 0.636846 0.507512 1.65507 -0.383339 -0.517304 -0.765145
Sp 1.14824 1.0477 0.997553 -0.779384 -0.514855 -0.357052
Sp 2.33189 -0.0580815 1.03284 0.0308652 -0.77355 -0.632983
Sp 0.261954 1.71926 1.01736 -0.278467 0.347274 0.895465
Sp -0.487231 1.58029 0.861111 0.2193 -0.194668 0.95604
Sp 2.21566 1.4964 -0.203957 -0.367334 -0.915961 0.161497
Sp 0.457652 1.13902 0.911422 -0.842662 -0.375594 0.385812
Sp 1.78343 0.249565 1.21275 0.778462 0.627126 -0.0266408
Sp -0.391357 1.90109 0.669665 0.00347601 0.0310311 -0.999512
Sp 0.434365 2.30662 0.806177 -0.607008 -0.0945459 0.789052
Sp -0.435766 1.99109 1.03371 -0.29355 0.690114 0.661491
Sp -0.469768 1.83759 2.23127 -0.982027 0.179286 -0.0589928
Sp 1.10058 1.99336 0.468714 0.467717 0.141389 -0.872496
Sp 1.36556 1.86104 0.403929 -0.0407032 -0.0459884 0.998112
Sp 2.16748 0.181585 -0.141522 -0.064004 -0.524986 0.848701
d 5 5 5 0 0 1
d 5 5 5 0.5 0 0.866025
d 5 5 5 0.866025 0 0.5
d 5 5 5 1 0 4.64686e-14
d 5 5 5 0.866025 0 -0.5
d 5 5 5 0.5 0 -0.866025
d 5 5 5 0 0 1
d 5 5 5 0.433013 0.25 0.866025
d 5 5 5 0.75 0.433013 0.5
d 5 5 5 0.866025 0.5 4.64686e-14
d 5 5 5 0.75 0.433013 -0.5
d 5 5 5 0.433013 0.25 -0.866025
d 5 5 5 0 0 1
d 5 5 5 0.25 0.433013 0.866025
d 5 5 5 0.433013 0.75 0.5
d 5 5 5 0.5 0.866025 4.64686e-14
d 5 5 5 0.433013 0.75 -0.5
d 5 5 5 0.25 0.433013 -0.866025
d 5 5 5 0 0 1
d 5 5 5 2.32343e-14 0.5 0.866025
d 5 5 5 4.02429e-14 0.866025 0.5
d 5 5 5 4.64686e-14 1 4.64686e-14
d 5 5 5 4.02429e-14 0.866025 -0.5
d 5 5 5 2.32343e-14 0.5 -0.866025
d 5 5 5 -0 0 1
d 5 5 5 -0.25 0.433013 0.866025
d 5 5 5 -0.433013 0.75 0.5
d 5 5 5 -0.5 0.866025 4.64686e-14
d 5 5 5 -0.433013 0.75 -0.5
d 5 5 5 -0.25 0.433013 -0.866025
d 5 5 5 -0 0 1
d 5 5 5 -0.433013 0.25 0.866025
d 5 5 5 -0.75 0.433013 0.5
d 5 5 5 -0.866025 0.5 4.64686e-14
d 5 5 5 -0.75 0.433013 -0.5
d 5 5 5 -0.433013 0.25 -0.866025
d 5 5 5 -0 0 1
d 5 5 5 -0.5 4.64686e-14 0.866025
d 5 5 5 -0.866025 8.04859e-14 0.5
d 5 5 5 -1 9.29371e-14 4.64686e-14
d 5 5 5 -0.866025 8.04859e-14 -0.5
d 5 5 5 -0.5 4.64686e-14 -0.866025
d 5 5 5 -0 -0 1
d 5 5 5 -0.433013 -0.25 0.866025
d 5 5 5 -0.75 -0.433013 0.5
d 5 5 5 -0.866025 -0.5 4.64686e-14
d 5 5 5 -0.75 -0.433013 -0.5
d 5 5 5 -0.433013 -0.25 -0.866025
d 5 5 5 -0 -0 1
d 5 5 5 -0.25 -0.433013 0.866025
d 5 5 5 -0.433013 -0.75 0.5
d 5 5 5 -0.5 -0.866025 4.64686e-14
d 5 5 5 -0.433013 -0.75 -0.5
d 5 5 5 -0.25 -0.433013 -0.866025
d 5 5 5 -0 -0 1
d 5 5 5 -6.98139e-14 -0.5 0.866025
d 5 5 5 -1.20921e-13 -0.866025 0.5
d 5 5 5 -1.39628e-13 -1 4.64686e-14
d 5 5 5 -1.20921e-13 -0.866025 -0.5
d 5 5 5 -6.98139e-14 -0.5 -0.866025
d 5 5 5 0 -0 1
d 5 5 5 0.25 -0.433013 0.866025
d 5 5 5 0.433013 -0.75 0.5
d 5 5 5 0.5 -0.866025 4.64686e-14
d 5 5 5 0.433013 -0.75 -0.5
d 5 5 5 0.25 -0.433013 -0.866025
d 5 5 5 0 -0 1
d 5 5 5 0.433013 -0.25 0.866025
d 5 5 5 0.75 -0.433013 0.5
d 5 5 5 0.866025 -0.5 4.64686e-14
d 5 5 5 0.75 -0.433013 -0.5
d 5 5 5 0.433013 -0.25 -0.866025
