99
Liquid Crystals with Colloide in temperature=1, and potential=-6.91015e-23
Sp 1.5156 1.60623 0.00423287 -0.803684 -0.587098 -0.0969888
Sp 2.30345 0.583611 0.383121 0.913536 0.195597 -0.356643
Sp 0.774075 1.39483 0.427503 0.0437033 -0.458182 0.887783
Sp 0.142993 1.50396 -0.398882 -0.726367 0.0709183 -0.683638
Sp -0.235718 0.650499 1.36221 -0.195202 -0.33821 -0.920603
Sp 2.30064 2.44737 1.59366 -0.306927 0.951028 -0.0366307
Sp 2.08111 0.986964 -0.149471 -0.82037 0.556659 0.130857
Sp -0.169931 1.95867 0.535153 -0.530293 -0.493557 0.689341
Sp 1.03654 2.43344 2.42052 -0.615595 0.150054 -0.773645
Sp 0.627859 1.00017 0.00716722 0.246288 0.290325 0.924691
Sp 1.89362 0.0868124 0.637684 -0.262388 0.128948 0.956308
Sp 1.27715 0.436976 2.08761 0.0273328 0.300162 -0.953497
Sp 1.7396 0.00744105 2.30822 -0.138349 -0.733348 -0.665628
Sp 1.14824 1.0477 0.997553 -0.779384 -0.514855 -0.357052
Sp 0.499769 0.608233 1.81634 -0.488084 -0.680786 -0.546172
Sp 2.43168 1.02325 -0.461134 -0.66867 0.210494 0.713143
Sp 0.0393168 1.89748 2.19919 0.476977 -0.172959 0.86173
Sp -0.384462 0.0822685 0.456874 -0.443248 -0.79597 0.412265
Sp -0.255794 0.503623 1.90657 -0.770697 -0.399328 0.496552
Sp -0.396334 0.480739 1.46031 0.453568 0.889433 0.0564319
Sp -0.287797 1.34 -0.225577 0.0843754 -0.160166 -0.983477
Sp 0.332254 1.87831 1.52188 -0.439402 0.48545 0.75582
Sp 0.617594 2.02102 -0.203338 -0.0605421 0.921463 0.38372
Sp 0.498198 2.28442 0.258892 -0.743264 -0.426371 -0.515525
Sp 0.37887 2.46611 0.603284 0.302135 0.279887 -0.911251
Sp 1.8821 -0.441569 2.49786 0.0607901 0.184586 0.980935
Sp 1.4761 -0.152722 -0.480745 0.490026 0.0495665 0.870298
d 5 5 5 0 0 1
d 5 5 5 0.5 0 0.866025
d 5 5 5 0.866025 0 0.5
d 5 5 5 1 0 4.64686e-14
d 5 5 5 0.866025 0 -0.5
d 5 5 5 0.5 0 -0.866025
d 5 5 5 0 0 1
d 5 5 5 0.433013 0.25 0.866025
d 5 5 5 0.75 0.433013 0.5
d 5 5 5 0.866025 0.5 4.64686e-14
d 5 5 5 0.75 0.433013 -0.5
d 5 5 5 0.433013 0.25 -0.866025
d 5 5 5 0 0 1
d 5 5 5 0.25 0.433013 0.866025
d 5 5 5 0.433013 0.75 0.5
d 5 5 5 0.5 0.866025 4.64686e-14
d 5 5 5 0.433013 0.75 -0.5
d 5 5 5 0.25 0.433013 -0.866025
d 5 5 5 0 0 1
d 5 5 5 2.32343e-14 0.5 0.866025
d 5 5 5 4.02429e-14 0.866025 0.5
d 5 5 5 4.64686e-14 1 4.64686e-14
d 5 5 5 4.02429e-14 0.866025 -0.5
d 5 5 5 2.32343e-14 0.5 -0.866025
d 5 5 5 -0 0 1
d 5 5 5 -0.25 0.433013 0.866025
d 5 5 5 -0.433013 0.75 0.5
d 5 5 5 -0.5 0.866025 4.64686e-14
d 5 5 5 -0.433013 0.75 -0.5
d 5 5 5 -0.25 0.433013 -0.866025
d 5 5 5 -0 0 1
d 5 5 5 -0.433013 0.25 0.866025
d 5 5 5 -0.75 0.433013 0.5
d 5 5 5 -0.866025 0.5 4.64686e-14
d 5 5 5 -0.75 0.433013 -0.5
d 5 5 5 -0.433013 0.25 -0.866025
d 5 5 5 -0 0 1
d 5 5 5 -0.5 4.64686e-14 0.866025
d 5 5 5 -0.866025 8.04859e-14 0.5
d 5 5 5 -1 9.29371e-14 4.64686e-14
d 5 5 5 -0.866025 8.04859e-14 -0.5
d 5 5 5 -0.5 4.64686e-14 -0.866025
d 5 5 5 -0 -0 1
d 5 5 5 -0.433013 -0.25 0.866025
d 5 5 5 -0.75 -0.433013 0.5
d 5 5 5 -0.866025 -0.5 4.64686e-14
d 5 5 5 -0.75 -0.433013 -0.5
d 5 5 5 -0.433013 -0.25 -0.866025
d 5 5 5 -0 -0 1
d 5 5 5 -0.25 -0.433013 0.866025
d 5 5 5 -0.433013 -0.75 0.5
d 5 5 5 -0.5 -0.866025 4.64686e-14
d 5 5 5 -0.433013 -0.75 -0.5
d 5 5 5 -0.25 -0.433013 -0.866025
d 5 5 5 -0 -0 1
d 5 5 5 -6.98139e-14 -0.5 0.866025
d 5 5 5 -1.20921e-13 -0.866025 0.5
d 5 5 5 -1.39628e-13 -1 4.64686e-14
d 5 5 5 -1.20921e-13 -0.866025 -0.5
d 5 5 5 -6.98139e-14 -0.5 -0.866025
d 5 5 5 0 -0 1
d 5 5 5 0.25 -0.433013 0.866025
d 5 5 5 0.433013 -0.75 0.5
d 5 5 5 0.5 -0.866025 4.64686e-14
d 5 5 5 0.433013 -0.75 -0.5
d 5 5 5 0.25 -0.433013 -0.866025
d 5 5 5 0 -0 1
d 5 5 5 0.433013 -0.25 0.866025
d 5 5 5 0.75 -0.433013 0.5
d 5 5 5 0.866025 -0.5 4.64686e-14
d 5 5 5 0.75 -0.433013 -0.5
d 5 5 5 0.433013 -0.25 -0.866025
