99
Liquid Crystals with Colloide in temperature=2.9, and potential=-6.00962e-23
Sp -0.0268683 1.88488 -0.467971 -0.633038 -0.715543 -0.295401
Sp 2.16386 2.33746 0.21576 0.91158 -0.148127 0.383511
Sp 0.344803 1.63653 -0.0547372 0.63093 -0.366735 0.68369
Sp 2.36429 0.148323 -0.427466 -0.644787 0.397968 -0.652589
Sp -0.119897 1.40882 0.310845 -0.137454 -0.869756 -0.473952
Sp -0.242926 1.66422 0.968699 -0.212948 0.948343 -0.235155
Sp 2.06553 2.49419 1.32997 -0.870827 0.180496 0.457254
Sp 1.56116 2.00241 0.643845 -0.686573 -0.379812 0.619968
Sp 2.32125 -0.376466 1.49014 -0.525755 0.513251 -0.678347
Sp 2.2865 0.153275 0.942377 0.72232 0.139722 0.677297
Sp 1.39434 0.0629314 1.08738 -0.609551 0.171826 0.773901
Sp 1.76814 2.10933 -0.429048 -0.465878 -0.0884411 -0.880418
Sp 1.11049 0.25812 0.947007 -0.207439 -0.535582 -0.818609
Sp 1.14824 1.0477 0.997553 -0.779384 -0.514855 -0.357052
Sp 2.441 1.93595 -0.442449 -0.804526 -0.430569 -0.409083
Sp 0.494624 -0.304317 -0.415214 -0.747639 -0.155242 0.645706
Sp 0.494481 0.0469958 0.558986 -0.101037 -0.849203 0.518311
Sp 2.15606 1.35315 0.0431963 0.215505 -0.947866 0.234749
Sp 2.47469 1.21352 1.67633 -0.851634 -0.245808 0.462923
Sp 2.12828 2.38084 2.10231 0.418221 0.834308 0.359195
Sp -0.429074 2.05895 0.164216 0.0481972 -0.619404 -0.783592
Sp 1.98182 -0.0123647 1.43494 -0.204153 0.0860732 0.975148
Sp 2.3686 0.517784 0.046147 0.40803 0.711399 0.572209
Sp 0.110974 0.181849 1.83267 -0.126012 -0.202353 -0.971172
Sp 2.13342 0.060825 1.84542 0.715343 0.402569 -0.571159
Sp 1.29634 1.21275 0.183433 0.517989 -0.229393 0.824055
Sp -0.476806 2.22122 1.34864 -0.417997 -0.104525 0.902415
d 5 5 5 0 0 1
d 5 5 5 0.5 0 0.866025
d 5 5 5 0.866025 0 0.5
d 5 5 5 1 0 4.64686e-14
d 5 5 5 0.866025 0 -0.5
d 5 5 5 0.5 0 -0.866025
d 5 5 5 0 0 1
d 5 5 5 0.433013 0.25 0.866025
d 5 5 5 0.75 0.433013 0.5
d 5 5 5 0.866025 0.5 4.64686e-14
d 5 5 5 0.75 0.433013 -0.5
d 5 5 5 0.433013 0.25 -0.866025
d 5 5 5 0 0 1
d 5 5 5 0.25 0.433013 0.866025
d 5 5 5 0.433013 0.75 0.5
d 5 5 5 0.5 0.866025 4.64686e-14
d 5 5 5 0.433013 0.75 -0.5
d 5 5 5 0.25 0.433013 -0.866025
d 5 5 5 0 0 1
d 5 5 5 2.32343e-14 0.5 0.866025
d 5 5 5 4.02429e-14 0.866025 0.5
d 5 5 5 4.64686e-14 1 4.64686e-14
d 5 5 5 4.02429e-14 0.866025 -0.5
d 5 5 5 2.32343e-14 0.5 -0.866025
d 5 5 5 -0 0 1
d 5 5 5 -0.25 0.433013 0.866025
d 5 5 5 -0.433013 0.75 0.5
d 5 5 5 -0.5 0.866025 4.64686e-14
d 5 5 5 -0.433013 0.75 -0.5
d 5 5 5 -0.25 0.433013 -0.866025
d 5 5 5 -0 0 1
d 5 5 5 -0.433013 0.25 0.866025
d 5 5 5 -0.75 0.433013 0.5
d 5 5 5 -0.866025 0.5 4.64686e-14
d 5 5 5 -0.75 0.433013 -0.5
d 5 5 5 -0.433013 0.25 -0.866025
d 5 5 5 -0 0 1
d 5 5 5 -0.5 4.64686e-14 0.866025
d 5 5 5 -0.866025 8.04859e-14 0.5
d 5 5 5 -1 9.29371e-14 4.64686e-14
d 5 5 5 -0.866025 8.04859e-14 -0.5
d 5 5 5 -0.5 4.64686e-14 -0.866025
d 5 5 5 -0 -0 1
d 5 5 5 -0.433013 -0.25 0.866025
d 5 5 5 -0.75 -0.433013 0.5
d 5 5 5 -0.866025 -0.5 4.64686e-14
d 5 5 5 -0.75 -0.433013 -0.5
d 5 5 5 -0.433013 -0.25 -0.866025
d 5 5 5 -0 -0 1
d 5 5 5 -0.25 -0.433013 0.866025
d 5 5 5 -0.433013 -0.75 0.5
d 5 5 5 -0.5 -0.866025 4.64686e-14
d 5 5 5 -0.433013 -0.75 -0.5
d 5 5 5 -0.25 -0.433013 -0.866025
d 5 5 5 -0 -0 1
d 5 5 5 -6.98139e-14 -0.5 0.866025
d 5 5 5 -1.20921e-13 -0.866025 0.5
d 5 5 5 -1.39628e-13 -1 4.64686e-14
d 5 5 5 -1.20921e-13 -0.866025 -0.5
d 5 5 5 -6.98139e-14 -0.5 -0.866025
d 5 5 5 0 -0 1
d 5 5 5 0.25 -0.433013 0.866025
d 5 5 5 0.433013 -0.75 0.5
d 5 5 5 0.5 -0.866025 4.64686e-14
d 5 5 5 0.433013 -0.75 -0.5
d 5 5 5 0.25 -0.433013 -0.866025
d 5 5 5 0 -0 1
d 5 5 5 0.433013 -0.25 0.866025
d 5 5 5 0.75 -0.433013 0.5
d 5 5 5 0.866025 -0.5 4.64686e-14
d 5 5 5 0.75 -0.433013 -0.5
d 5 5 5 0.433013 -0.25 -0.866025
