99
Liquid Crystals with Colloide in temperature=0.1, and potential=-4.03662e-22
Sp 1.83835 0.088777 1.82845 -0.10623 -0.926959 -0.359809
Sp 2.06418 1.58293 -0.350453 0.534276 -0.730558 -0.425246
Sp 0.202066 0.586507 1.508 0.73739 0.123896 0.664007
Sp 0.204829 2.42311 0.99717 -0.774641 0.12099 -0.620719
Sp 0.30122 1.38258 1.33017 -0.0783475 -0.17657 -0.981165
Sp 0.585416 0.21808 1.27375 -0.030032 0.753451 0.656818
Sp 1.7014 1.79941 -0.429638 -0.307426 0.950102 0.052873
Sp 0.981931 0.617483 -0.456517 -0.217852 -0.583782 0.782137
Sp 1.62377 1.61986 2.41053 -0.52191 -0.0445955 -0.851834
Sp 0.776575 0.79659 0.609975 0.264762 0.21979 0.938932
Sp 1.35639 0.482711 0.569147 0.287881 0.23872 0.927436
Sp 1.72171 0.589728 2.38359 0.117232 0.781347 -0.612987
Sp 0.977493 0.932243 2.27219 -0.385595 -0.517631 -0.76379
Sp 1.14824 1.0477 0.997553 -0.779384 -0.514855 -0.357052
Sp 1.22279 0.202664 -0.110539 0.800215 -0.32143 -0.506299
Sp 0.990753 2.2286 -0.325307 -0.0409027 -0.182468 0.982361
Sp 0.369171 1.76005 1.61966 0.353868 -0.119268 0.92766
Sp 0.468714 0.0819154 1.79244 -0.790511 -0.609094 -0.0640037
Sp -0.448078 2.4552 1.05766 -0.705381 -0.585807 -0.399083
Sp 1.81068 0.562779 1.11494 0.743054 0.667475 -0.0484578
Sp 2.17721 2.39832 0.576732 -0.106234 0.152881 -0.982518
Sp 1.64767 2.32285 0.299813 -0.527579 -0.0569839 0.847593
Sp 1.5637 0.656531 0.00330706 -0.619036 0.536424 0.573624
Sp 0.475591 1.34339 1.2138 -0.886112 0.105371 0.451335
Sp 1.11231 2.21191 2.44567 0.368708 0.155459 -0.916453
Sp 1.31038 2.48627 0.446638 -0.0550651 0.107573 0.992671
Sp 1.26749 1.76333 0.403861 -0.205114 -0.658991 0.723643
d 5 5 5 0 0 1
d 5 5 5 0.5 0 0.866025
d 5 5 5 0.866025 0 0.5
d 5 5 5 1 0 4.64686e-14
d 5 5 5 0.866025 0 -0.5
d 5 5 5 0.5 0 -0.866025
d 5 5 5 0 0 1
d 5 5 5 0.433013 0.25 0.866025
d 5 5 5 0.75 0.433013 0.5
d 5 5 5 0.866025 0.5 4.64686e-14
d 5 5 5 0.75 0.433013 -0.5
d 5 5 5 0.433013 0.25 -0.866025
d 5 5 5 0 0 1
d 5 5 5 0.25 0.433013 0.866025
d 5 5 5 0.433013 0.75 0.5
d 5 5 5 0.5 0.866025 4.64686e-14
d 5 5 5 0.433013 0.75 -0.5
d 5 5 5 0.25 0.433013 -0.866025
d 5 5 5 0 0 1
d 5 5 5 2.32343e-14 0.5 0.866025
d 5 5 5 4.02429e-14 0.866025 0.5
d 5 5 5 4.64686e-14 1 4.64686e-14
d 5 5 5 4.02429e-14 0.866025 -0.5
d 5 5 5 2.32343e-14 0.5 -0.866025
d 5 5 5 -0 0 1
d 5 5 5 -0.25 0.433013 0.866025
d 5 5 5 -0.433013 0.75 0.5
d 5 5 5 -0.5 0.866025 4.64686e-14
d 5 5 5 -0.433013 0.75 -0.5
d 5 5 5 -0.25 0.433013 -0.866025
d 5 5 5 -0 0 1
d 5 5 5 -0.433013 0.25 0.866025
d 5 5 5 -0.75 0.433013 0.5
d 5 5 5 -0.866025 0.5 4.64686e-14
d 5 5 5 -0.75 0.433013 -0.5
d 5 5 5 -0.433013 0.25 -0.866025
d 5 5 5 -0 0 1
d 5 5 5 -0.5 4.64686e-14 0.866025
d 5 5 5 -0.866025 8.04859e-14 0.5
d 5 5 5 -1 9.29371e-14 4.64686e-14
d 5 5 5 -0.866025 8.04859e-14 -0.5
d 5 5 5 -0.5 4.64686e-14 -0.866025
d 5 5 5 -0 -0 1
d 5 5 5 -0.433013 -0.25 0.866025
d 5 5 5 -0.75 -0.433013 0.5
d 5 5 5 -0.866025 -0.5 4.64686e-14
d 5 5 5 -0.75 -0.433013 -0.5
d 5 5 5 -0.433013 -0.25 -0.866025
d 5 5 5 -0 -0 1
d 5 5 5 -0.25 -0.433013 0.866025
d 5 5 5 -0.433013 -0.75 0.5
d 5 5 5 -0.5 -0.866025 4.64686e-14
d 5 5 5 -0.433013 -0.75 -0.5
d 5 5 5 -0.25 -0.433013 -0.866025
d 5 5 5 -0 -0 1
d 5 5 5 -6.98139e-14 -0.5 0.866025
d 5 5 5 -1.20921e-13 -0.866025 0.5
d 5 5 5 -1.39628e-13 -1 4.64686e-14
d 5 5 5 -1.20921e-13 -0.866025 -0.5
d 5 5 5 -6.98139e-14 -0.5 -0.866025
d 5 5 5 0 -0 1
d 5 5 5 0.25 -0.433013 0.866025
d 5 5 5 0.433013 -0.75 0.5
d 5 5 5 0.5 -0.866025 4.64686e-14
d 5 5 5 0.433013 -0.75 -0.5
d 5 5 5 0.25 -0.433013 -0.866025
d 5 5 5 0 -0 1
d 5 5 5 0.433013 -0.25 0.866025
d 5 5 5 0.75 -0.433013 0.5
d 5 5 5 0.866025 -0.5 4.64686e-14
d 5 5 5 0.75 -0.433013 -0.5
d 5 5 5 0.433013 -0.25 -0.866025
