99
Liquid Crystals with Colloide in temperature=0.1, and potential=-3.95863e-22
Sp 1.83835 0.088777 1.82845 -0.10623 -0.926959 -0.359809
Sp 0.0346315 -0.297784 0.158446 0.814894 -0.488436 -0.312056
Sp 0.280426 0.83826 -0.199395 0.59997 0.152699 0.785314
Sp 0.00718475 1.22719 1.34981 -0.817502 -0.179069 -0.54738
Sp 0.30122 1.38258 1.33017 -0.0783475 -0.17657 -0.981165
Sp 1.07787 0.461504 1.15617 0.0900406 0.791028 0.605118
Sp 1.7014 1.79941 -0.429638 -0.307426 0.950102 0.052873
Sp 0.48439 0.291874 2.34804 -0.333139 -0.648981 0.68399
Sp 1.62377 1.61986 2.41053 -0.52191 -0.0445955 -0.851834
Sp 0.776575 0.79659 0.609975 0.264762 0.21979 0.938932
Sp 1.35639 0.482711 0.569147 0.287881 0.23872 0.927436
Sp 1.72171 0.589728 2.38359 0.117232 0.781347 -0.612987
Sp 0.977493 0.932243 2.27219 -0.385595 -0.517631 -0.76379
Sp 1.14824 1.0477 0.997553 -0.779384 -0.514855 -0.357052
Sp 0.284925 -0.34616 0.851233 0.756592 -0.528231 -0.385408
Sp 0.990753 2.2286 -0.325307 -0.0409027 -0.182468 0.982361
Sp 0.369171 1.76005 1.61966 0.353868 -0.119268 0.92766
Sp 2.02497 1.05893 0.330179 -0.257677 -0.922216 0.288305
Sp 0.499631 2.37514 2.22791 -0.625436 -0.757608 -0.186708
Sp 1.81068 0.562779 1.11494 0.743054 0.667475 -0.0484578
Sp 2.17721 2.39832 0.576732 -0.106234 0.152881 -0.982518
Sp 0.118898 -0.33074 -0.168183 -0.275547 0.0152939 0.961166
Sp 0.615799 0.421149 -0.144382 -0.780318 0.412938 0.469665
Sp 0.475591 1.34339 1.2138 -0.886112 0.105371 0.451335
Sp 1.11231 2.21191 2.44567 0.368708 0.155459 -0.916453
Sp 1.31038 2.48627 0.446638 -0.0550651 0.107573 0.992671
Sp 1.26749 1.76333 0.403861 -0.205114 -0.658991 0.723643
d 5 5 5 0 0 1
d 5 5 5 0.5 0 0.866025
d 5 5 5 0.866025 0 0.5
d 5 5 5 1 0 4.64686e-14
d 5 5 5 0.866025 0 -0.5
d 5 5 5 0.5 0 -0.866025
d 5 5 5 0 0 1
d 5 5 5 0.433013 0.25 0.866025
d 5 5 5 0.75 0.433013 0.5
d 5 5 5 0.866025 0.5 4.64686e-14
d 5 5 5 0.75 0.433013 -0.5
d 5 5 5 0.433013 0.25 -0.866025
d 5 5 5 0 0 1
d 5 5 5 0.25 0.433013 0.866025
d 5 5 5 0.433013 0.75 0.5
d 5 5 5 0.5 0.866025 4.64686e-14
d 5 5 5 0.433013 0.75 -0.5
d 5 5 5 0.25 0.433013 -0.866025
d 5 5 5 0 0 1
d 5 5 5 2.32343e-14 0.5 0.866025
d 5 5 5 4.02429e-14 0.866025 0.5
d 5 5 5 4.64686e-14 1 4.64686e-14
d 5 5 5 4.02429e-14 0.866025 -0.5
d 5 5 5 2.32343e-14 0.5 -0.866025
d 5 5 5 -0 0 1
d 5 5 5 -0.25 0.433013 0.866025
d 5 5 5 -0.433013 0.75 0.5
d 5 5 5 -0.5 0.866025 4.64686e-14
d 5 5 5 -0.433013 0.75 -0.5
d 5 5 5 -0.25 0.433013 -0.866025
d 5 5 5 -0 0 1
d 5 5 5 -0.433013 0.25 0.866025
d 5 5 5 -0.75 0.433013 0.5
d 5 5 5 -0.866025 0.5 4.64686e-14
d 5 5 5 -0.75 0.433013 -0.5
d 5 5 5 -0.433013 0.25 -0.866025
d 5 5 5 -0 0 1
d 5 5 5 -0.5 4.64686e-14 0.866025
d 5 5 5 -0.866025 8.04859e-14 0.5
d 5 5 5 -1 9.29371e-14 4.64686e-14
d 5 5 5 -0.866025 8.04859e-14 -0.5
d 5 5 5 -0.5 4.64686e-14 -0.866025
d 5 5 5 -0 -0 1
d 5 5 5 -0.433013 -0.25 0.866025
d 5 5 5 -0.75 -0.433013 0.5
d 5 5 5 -0.866025 -0.5 4.64686e-14
d 5 5 5 -0.75 -0.433013 -0.5
d 5 5 5 -0.433013 -0.25 -0.866025
d 5 5 5 -0 -0 1
d 5 5 5 -0.25 -0.433013 0.866025
d 5 5 5 -0.433013 -0.75 0.5
d 5 5 5 -0.5 -0.866025 4.64686e-14
d 5 5 5 -0.433013 -0.75 -0.5
d 5 5 5 -0.25 -0.433013 -0.866025
d 5 5 5 -0 -0 1
d 5 5 5 -6.98139e-14 -0.5 0.866025
d 5 5 5 -1.20921e-13 -0.866025 0.5
d 5 5 5 -1.39628e-13 -1 4.64686e-14
d 5 5 5 -1.20921e-13 -0.866025 -0.5
d 5 5 5 -6.98139e-14 -0.5 -0.866025
d 5 5 5 0 -0 1
d 5 5 5 0.25 -0.433013 0.866025
d 5 5 5 0.433013 -0.75 0.5
d 5 5 5 0.5 -0.866025 4.64686e-14
d 5 5 5 0.433013 -0.75 -0.5
d 5 5 5 0.25 -0.433013 -0.866025
d 5 5 5 0 -0 1
d 5 5 5 0.433013 -0.25 0.866025
d 5 5 5 0.75 -0.433013 0.5
d 5 5 5 0.866025 -0.5 4.64686e-14
d 5 5 5 0.75 -0.433013 -0.5
d 5 5 5 0.433013 -0.25 -0.866025
