99
Liquid Crystals with Colloide in temperature=1.3, and potential=-3.44974e-23
Sp 2.02892 1.90576 2.33329 -0.765717 -0.577279 -0.283598
Sp -0.131208 0.142765 1.2173 0.990363 0.06501 -0.122291
Sp 1.18007 0.699986 -0.0617463 0.148537 -0.627837 0.76404
Sp -0.404839 2.27206 0.0128706 -0.808353 0.245158 -0.535222
Sp -0.074079 -0.290349 -0.318353 -0.17919 -0.691178 -0.700117
Sp 2.44322 -0.286108 1.24429 -0.252231 0.959955 -0.121927
Sp 0.0796841 0.666691 0.463914 -0.737854 0.592827 0.322689
Sp 2.35103 2.01541 -0.414448 -0.688063 -0.519924 0.506209
Sp 1.48715 -0.2193 0.0450145 -0.602058 0.287315 -0.744967
Sp 0.218774 0.515428 -0.36446 0.16148 0.203294 0.96571
Sp 1.61392 2.35094 -0.00736817 -0.373731 -0.0445094 0.926469
Sp 1.25942 0.0863614 1.86736 0.0273564 0.200671 -0.979277
Sp 1.46575 -0.226707 2.25849 -0.194017 -0.753133 -0.628608
Sp 1.14824 1.0477 0.997553 -0.779384 -0.514855 -0.357052
Sp 1.06443 0.250108 2.24546 -0.362951 -0.811367 -0.458204
Sp 0.129306 -0.0877856 0.401513 -0.477868 -0.0525316 0.87686
Sp 0.00806331 1.31991 2.3819 0.442398 -0.294658 0.84703
Sp 0.262024 -0.259431 0.985218 -0.251977 -0.820026 0.513873
Sp -0.293519 0.496694 1.6835 -0.794014 -0.40688 0.451654
Sp 0.356922 1.13385 1.14054 0.522619 0.8521 -0.0281879
Sp -0.148403 0.697658 0.411507 0.124206 -0.339366 -0.932418
Sp 0.495999 0.91546 2.00166 -0.400888 0.245802 0.882536
Sp 0.96277 1.68686 0.490151 0.028596 0.833667 0.551526
Sp 2.4938 2.24222 -0.359863 -0.78473 -0.316622 -0.532869
Sp 0.778647 -0.0609541 1.44699 0.439417 0.434307 -0.786314
Sp 1.94547 1.94298 -0.0856895 0.0753961 0.00309668 0.997149
Sp 0.867554 0.169182 0.0438515 0.679633 0.166368 0.714437
d 5 5 5 0 0 1
d 5 5 5 0.5 0 0.866025
d 5 5 5 0.866025 0 0.5
d 5 5 5 1 0 4.64686e-14
d 5 5 5 0.866025 0 -0.5
d 5 5 5 0.5 0 -0.866025
d 5 5 5 0 0 1
d 5 5 5 0.433013 0.25 0.866025
d 5 5 5 0.75 0.433013 0.5
d 5 5 5 0.866025 0.5 4.64686e-14
d 5 5 5 0.75 0.433013 -0.5
d 5 5 5 0.433013 0.25 -0.866025
d 5 5 5 0 0 1
d 5 5 5 0.25 0.433013 0.866025
d 5 5 5 0.433013 0.75 0.5
d 5 5 5 0.5 0.866025 4.64686e-14
d 5 5 5 0.433013 0.75 -0.5
d 5 5 5 0.25 0.433013 -0.866025
d 5 5 5 0 0 1
d 5 5 5 2.32343e-14 0.5 0.866025
d 5 5 5 4.02429e-14 0.866025 0.5
d 5 5 5 4.64686e-14 1 4.64686e-14
d 5 5 5 4.02429e-14 0.866025 -0.5
d 5 5 5 2.32343e-14 0.5 -0.866025
d 5 5 5 -0 0 1
d 5 5 5 -0.25 0.433013 0.866025
d 5 5 5 -0.433013 0.75 0.5
d 5 5 5 -0.5 0.866025 4.64686e-14
d 5 5 5 -0.433013 0.75 -0.5
d 5 5 5 -0.25 0.433013 -0.866025
d 5 5 5 -0 0 1
d 5 5 5 -0.433013 0.25 0.866025
d 5 5 5 -0.75 0.433013 0.5
d 5 5 5 -0.866025 0.5 4.64686e-14
d 5 5 5 -0.75 0.433013 -0.5
d 5 5 5 -0.433013 0.25 -0.866025
d 5 5 5 -0 0 1
d 5 5 5 -0.5 4.64686e-14 0.866025
d 5 5 5 -0.866025 8.04859e-14 0.5
d 5 5 5 -1 9.29371e-14 4.64686e-14
d 5 5 5 -0.866025 8.04859e-14 -0.5
d 5 5 5 -0.5 4.64686e-14 -0.866025
d 5 5 5 -0 -0 1
d 5 5 5 -0.433013 -0.25 0.866025
d 5 5 5 -0.75 -0.433013 0.5
d 5 5 5 -0.866025 -0.5 4.64686e-14
d 5 5 5 -0.75 -0.433013 -0.5
d 5 5 5 -0.433013 -0.25 -0.866025
d 5 5 5 -0 -0 1
d 5 5 5 -0.25 -0.433013 0.866025
d 5 5 5 -0.433013 -0.75 0.5
d 5 5 5 -0.5 -0.866025 4.64686e-14
d 5 5 5 -0.433013 -0.75 -0.5
d 5 5 5 -0.25 -0.433013 -0.866025
d 5 5 5 -0 -0 1
d 5 5 5 -6.98139e-14 -0.5 0.866025
d 5 5 5 -1.20921e-13 -0.866025 0.5
d 5 5 5 -1.39628e-13 -1 4.64686e-14
d 5 5 5 -1.20921e-13 -0.866025 -0.5
d 5 5 5 -6.98139e-14 -0.5 -0.866025
d 5 5 5 0 -0 1
d 5 5 5 0.25 -0.433013 0.866025
d 5 5 5 0.433013 -0.75 0.5
d 5 5 5 0.5 -0.866025 4.64686e-14
d 5 5 5 0.433013 -0.75 -0.5
d 5 5 5 0.25 -0.433013 -0.866025
d 5 5 5 0 -0 1
d 5 5 5 0.433013 -0.25 0.866025
d 5 5 5 0.75 -0.433013 0.5
d 5 5 5 0.866025 -0.5 4.64686e-14
d 5 5 5 0.75 -0.433013 -0.5
d 5 5 5 0.433013 -0.25 -0.866025
