99
Liquid Crystals with Colloide in temperature=0.4, and potential=-1.46089e-22
Sp 1.273 1.25376 -0.257728 -0.328473 -0.929204 -0.169368
Sp -0.242611 0.108975 0.351749 0.81447 -0.522378 -0.252508
Sp 1.38284 1.78701 0.337258 0.162618 -0.387651 0.907349
Sp -0.417978 -0.460005 0.662779 -0.842532 0.331885 -0.424255
Sp 0.30122 1.38258 1.33017 -0.0783475 -0.17657 -0.981165
Sp 2.03865 2.0117 1.87574 -0.397867 0.916972 0.0294036
Sp -0.329087 0.698289 0.160729 -0.789945 0.570129 0.2257
Sp 0.582259 0.70305 -0.349408 -0.143004 -0.517789 0.843472
Sp 1.54748 1.69405 2.32207 -0.526397 -0.0247455 -0.849879
Sp 0.776575 0.79659 0.609975 0.264762 0.21979 0.938932
Sp 2.32729 -0.206493 0.987277 -0.158152 0.0805836 0.984121
Sp 0.902162 -0.378717 -0.215619 -0.0582435 0.735375 -0.675153
Sp 0.469324 0.526017 1.76709 -0.427717 -0.516049 -0.742127
Sp 1.14824 1.0477 0.997553 -0.779384 -0.514855 -0.357052
Sp 1.02367 -0.0175837 2.12812 -0.344084 -0.839433 -0.420664
Sp -0.129629 2.48523 0.903066 -0.34431 0.509481 0.788593
Sp -0.275757 1.62505 0.636071 0.286712 -0.188895 0.93921
Sp 1.64208 2.19707 0.116856 -0.551486 -0.795053 0.252497
Sp 0.254515 0.674532 1.8612 -0.730328 -0.416995 0.541051
Sp 1.38716 -0.38339 1.77872 0.818647 0.559875 0.127894
Sp -0.388835 0.863923 0.83706 0.0101912 -0.231973 -0.972669
Sp 0.384964 -0.136653 1.29642 -0.556802 0.0282374 0.830165
Sp -0.0821978 -0.321514 1.10776 -0.186155 0.77565 0.603087
Sp -0.292307 1.26294 2.43715 -0.998811 0.0462822 -0.0153344
Sp 1.10058 1.99336 0.468714 0.467717 0.141389 -0.872496
Sp 1.07757 2.43721 -0.163581 -0.125515 0.0908117 0.987927
Sp 0.29167 0.385639 0.223139 0.197377 -0.45038 0.870747
d 5 5 5 0 0 1
d 5 5 5 0.5 0 0.866025
d 5 5 5 0.866025 0 0.5
d 5 5 5 1 0 4.64686e-14
d 5 5 5 0.866025 0 -0.5
d 5 5 5 0.5 0 -0.866025
d 5 5 5 0 0 1
d 5 5 5 0.433013 0.25 0.866025
d 5 5 5 0.75 0.433013 0.5
d 5 5 5 0.866025 0.5 4.64686e-14
d 5 5 5 0.75 0.433013 -0.5
d 5 5 5 0.433013 0.25 -0.866025
d 5 5 5 0 0 1
d 5 5 5 0.25 0.433013 0.866025
d 5 5 5 0.433013 0.75 0.5
d 5 5 5 0.5 0.866025 4.64686e-14
d 5 5 5 0.433013 0.75 -0.5
d 5 5 5 0.25 0.433013 -0.866025
d 5 5 5 0 0 1
d 5 5 5 2.32343e-14 0.5 0.866025
d 5 5 5 4.02429e-14 0.866025 0.5
d 5 5 5 4.64686e-14 1 4.64686e-14
d 5 5 5 4.02429e-14 0.866025 -0.5
d 5 5 5 2.32343e-14 0.5 -0.866025
d 5 5 5 -0 0 1
d 5 5 5 -0.25 0.433013 0.866025
d 5 5 5 -0.433013 0.75 0.5
d 5 5 5 -0.5 0.866025 4.64686e-14
d 5 5 5 -0.433013 0.75 -0.5
d 5 5 5 -0.25 0.433013 -0.866025
d 5 5 5 -0 0 1
d 5 5 5 -0.433013 0.25 0.866025
d 5 5 5 -0.75 0.433013 0.5
d 5 5 5 -0.866025 0.5 4.64686e-14
d 5 5 5 -0.75 0.433013 -0.5
d 5 5 5 -0.433013 0.25 -0.866025
d 5 5 5 -0 0 1
d 5 5 5 -0.5 4.64686e-14 0.866025
d 5 5 5 -0.866025 8.04859e-14 0.5
d 5 5 5 -1 9.29371e-14 4.64686e-14
d 5 5 5 -0.866025 8.04859e-14 -0.5
d 5 5 5 -0.5 4.64686e-14 -0.866025
d 5 5 5 -0 -0 1
d 5 5 5 -0.433013 -0.25 0.866025
d 5 5 5 -0.75 -0.433013 0.5
d 5 5 5 -0.866025 -0.5 4.64686e-14
d 5 5 5 -0.75 -0.433013 -0.5
d 5 5 5 -0.433013 -0.25 -0.866025
d 5 5 5 -0 -0 1
d 5 5 5 -0.25 -0.433013 0.866025
d 5 5 5 -0.433013 -0.75 0.5
d 5 5 5 -0.5 -0.866025 4.64686e-14
d 5 5 5 -0.433013 -0.75 -0.5
d 5 5 5 -0.25 -0.433013 -0.866025
d 5 5 5 -0 -0 1
d 5 5 5 -6.98139e-14 -0.5 0.866025
d 5 5 5 -1.20921e-13 -0.866025 0.5
d 5 5 5 -1.39628e-13 -1 4.64686e-14
d 5 5 5 -1.20921e-13 -0.866025 -0.5
d 5 5 5 -6.98139e-14 -0.5 -0.866025
d 5 5 5 0 -0 1
d 5 5 5 0.25 -0.433013 0.866025
d 5 5 5 0.433013 -0.75 0.5
d 5 5 5 0.5 -0.866025 4.64686e-14
d 5 5 5 0.433013 -0.75 -0.5
d 5 5 5 0.25 -0.433013 -0.866025
d 5 5 5 0 -0 1
d 5 5 5 0.433013 -0.25 0.866025
d 5 5 5 0.75 -0.433013 0.5
d 5 5 5 0.866025 -0.5 4.64686e-14
d 5 5 5 0.75 -0.433013 -0.5
d 5 5 5 0.433013 -0.25 -0.866025
