99
Liquid Crystals with Colloide in temperature=2.6, and potential=-2.59907e-23
Sp -0.360161 1.36731 1.88937 -0.597635 -0.703753 -0.38414
Sp 2.25692 0.149886 2.14821 0.988341 0.0278437 0.149689
Sp 0.124773 0.972725 0.627157 0.49277 -0.455958 0.741134
Sp 1.6114 0.0364418 2.06655 -0.698109 0.306866 -0.646899
Sp -0.257358 1.84479 0.766881 -0.204418 -0.879664 -0.429423
Sp -0.371926 1.24101 1.49935 -0.269057 0.956703 -0.111028
Sp 1.78163 0.32036 1.2571 -0.841024 0.383116 0.38197
Sp 1.62914 1.86144 0.0337237 -0.733072 -0.449629 0.510333
Sp 0.15763 0.500985 0.757257 -0.250931 0.628553 -0.736175
Sp 2.0206 -0.112856 1.44007 0.633124 0.0705484 0.770829
Sp 1.07382 0.471933 0.68239 -0.685611 0.274658 0.674166
Sp 2.13334 -0.43196 -0.130407 -0.426107 0.0216604 -0.904413
Sp 0.644484 0.286748 1.48321 -0.348405 -0.572621 -0.742105
Sp 1.14824 1.0477 0.997553 -0.779384 -0.514855 -0.357052
Sp 1.90644 0.661282 -0.240303 -0.740294 -0.611435 -0.279484
Sp 1.12595 2.40076 0.0356624 -0.594625 -0.214954 0.774736
Sp 0.52021 0.163182 0.63133 -0.0894269 -0.829503 0.551296
Sp 2.27764 1.863 0.0667963 0.266497 -0.925124 0.270417
Sp 2.42518 0.791971 2.03686 -0.791255 -0.328292 0.515887
Sp 2.04547 0.092207 2.32549 0.336997 0.871167 0.357073
Sp -0.435851 -0.350905 0.530479 0.0631936 -0.569232 -0.819745
Sp 1.85241 0.494204 1.79394 -0.214457 0.178866 0.960216
Sp 2.23573 0.102597 0.503462 0.374402 0.615933 0.693145
Sp 1.65046 2.31015 2.42556 -0.480896 -0.403478 -0.778425
Sp 1.70176 0.454539 1.67939 0.608861 0.504589 -0.61211
Sp 1.91138 1.73703 0.182559 0.628621 -0.0950433 0.771882
Sp 0.426825 2.36789 1.33901 -0.209898 -0.0769105 0.974694
d 5 5 5 0 0 1
d 5 5 5 0.5 0 0.866025
d 5 5 5 0.866025 0 0.5
d 5 5 5 1 0 4.64686e-14
d 5 5 5 0.866025 0 -0.5
d 5 5 5 0.5 0 -0.866025
d 5 5 5 0 0 1
d 5 5 5 0.433013 0.25 0.866025
d 5 5 5 0.75 0.433013 0.5
d 5 5 5 0.866025 0.5 4.64686e-14
d 5 5 5 0.75 0.433013 -0.5
d 5 5 5 0.433013 0.25 -0.866025
d 5 5 5 0 0 1
d 5 5 5 0.25 0.433013 0.866025
d 5 5 5 0.433013 0.75 0.5
d 5 5 5 0.5 0.866025 4.64686e-14
d 5 5 5 0.433013 0.75 -0.5
d 5 5 5 0.25 0.433013 -0.866025
d 5 5 5 0 0 1
d 5 5 5 2.32343e-14 0.5 0.866025
d 5 5 5 4.02429e-14 0.866025 0.5
d 5 5 5 4.64686e-14 1 4.64686e-14
d 5 5 5 4.02429e-14 0.866025 -0.5
d 5 5 5 2.32343e-14 0.5 -0.866025
d 5 5 5 -0 0 1
d 5 5 5 -0.25 0.433013 0.866025
d 5 5 5 -0.433013 0.75 0.5
d 5 5 5 -0.5 0.866025 4.64686e-14
d 5 5 5 -0.433013 0.75 -0.5
d 5 5 5 -0.25 0.433013 -0.866025
d 5 5 5 -0 0 1
d 5 5 5 -0.433013 0.25 0.866025
d 5 5 5 -0.75 0.433013 0.5
d 5 5 5 -0.866025 0.5 4.64686e-14
d 5 5 5 -0.75 0.433013 -0.5
d 5 5 5 -0.433013 0.25 -0.866025
d 5 5 5 -0 0 1
d 5 5 5 -0.5 4.64686e-14 0.866025
d 5 5 5 -0.866025 8.04859e-14 0.5
d 5 5 5 -1 9.29371e-14 4.64686e-14
d 5 5 5 -0.866025 8.04859e-14 -0.5
d 5 5 5 -0.5 4.64686e-14 -0.866025
d 5 5 5 -0 -0 1
d 5 5 5 -0.433013 -0.25 0.866025
d 5 5 5 -0.75 -0.433013 0.5
d 5 5 5 -0.866025 -0.5 4.64686e-14
d 5 5 5 -0.75 -0.433013 -0.5
d 5 5 5 -0.433013 -0.25 -0.866025
d 5 5 5 -0 -0 1
d 5 5 5 -0.25 -0.433013 0.866025
d 5 5 5 -0.433013 -0.75 0.5
d 5 5 5 -0.5 -0.866025 4.64686e-14
d 5 5 5 -0.433013 -0.75 -0.5
d 5 5 5 -0.25 -0.433013 -0.866025
d 5 5 5 -0 -0 1
d 5 5 5 -6.98139e-14 -0.5 0.866025
d 5 5 5 -1.20921e-13 -0.866025 0.5
d 5 5 5 -1.39628e-13 -1 4.64686e-14
d 5 5 5 -1.20921e-13 -0.866025 -0.5
d 5 5 5 -6.98139e-14 -0.5 -0.866025
d 5 5 5 0 -0 1
d 5 5 5 0.25 -0.433013 0.866025
d 5 5 5 0.433013 -0.75 0.5
d 5 5 5 0.5 -0.866025 4.64686e-14
d 5 5 5 0.433013 -0.75 -0.5
d 5 5 5 0.25 -0.433013 -0.866025
d 5 5 5 0 -0 1
d 5 5 5 0.433013 -0.25 0.866025
d 5 5 5 0.75 -0.433013 0.5
d 5 5 5 0.866025 -0.5 4.64686e-14
d 5 5 5 0.75 -0.433013 -0.5
d 5 5 5 0.433013 -0.25 -0.866025
