99
Liquid Crystals with Colloide in temperature=0.3, and potential=-3.23711e-22
Sp 1.81383 2.42735 -0.459212 -0.114127 -0.977836 -0.175532
Sp 2.09058 2.49124 -0.475839 0.616816 -0.651499 -0.441687
Sp 2.17554 -0.19693 2.378 0.441715 -0.204718 0.873486
Sp 0.509458 0.404766 2.19524 -0.812956 0.309291 -0.493398
Sp 0.30122 1.38258 1.33017 -0.0783475 -0.17657 -0.981165
Sp 0.0861611 0.801825 2.39794 -0.230482 0.952351 0.199762
Sp 0.0908252 0.97304 -0.0715165 -0.680363 0.719637 0.138668
Sp 1.24565 0.0773234 2.2451 -0.116865 -0.942301 0.313704
Sp 1.56983 1.71922 2.36381 -0.527258 -0.0180051 -0.849514
Sp 0.776575 0.79659 0.609975 0.264762 0.21979 0.938932
Sp 0.960768 0.828235 0.00560839 0.238542 0.356684 0.903258
Sp 2.07083 0.745083 2.05607 0.188859 0.74822 -0.636002
Sp 0.636846 0.507512 1.65507 -0.383339 -0.517304 -0.765145
Sp 1.14824 1.0477 0.997553 -0.779384 -0.514855 -0.357052
Sp 1.44235 2.45633 0.413057 0.434781 -0.696361 -0.571005
Sp 0.978087 -0.377529 1.49845 -0.102058 -0.151455 0.983181
Sp -0.133022 1.56301 -0.0355147 0.370121 -0.223029 0.901814
Sp 1.48487 1.58833 -0.453013 -0.519272 -0.84903 0.0974932
Sp 0.457652 1.13902 0.911422 -0.842662 -0.375594 0.385812
Sp 1.81068 0.562779 1.11494 0.743054 0.667475 -0.0484578
Sp 2.48963 2.07242 0.675788 -0.0324214 0.077952 -0.99643
Sp -0.410851 1.98453 1.85106 -0.598411 -0.131077 0.790394
Sp 1.96259 0.243551 1.13142 -0.455178 0.383432 0.803612
Sp 0.475591 1.34339 1.2138 -0.886112 0.105371 0.451335
Sp 1.60576 2.49634 2.23644 0.448042 0.207453 -0.86961
Sp 1.68388 2.25531 0.143149 0.0402731 0.0546899 0.997691
Sp 1.91102 -0.301323 2.49353 -0.10891 -0.651637 0.750672
d 5 5 5 0 0 1
d 5 5 5 0.5 0 0.866025
d 5 5 5 0.866025 0 0.5
d 5 5 5 1 0 4.64686e-14
d 5 5 5 0.866025 0 -0.5
d 5 5 5 0.5 0 -0.866025
d 5 5 5 0 0 1
d 5 5 5 0.433013 0.25 0.866025
d 5 5 5 0.75 0.433013 0.5
d 5 5 5 0.866025 0.5 4.64686e-14
d 5 5 5 0.75 0.433013 -0.5
d 5 5 5 0.433013 0.25 -0.866025
d 5 5 5 0 0 1
d 5 5 5 0.25 0.433013 0.866025
d 5 5 5 0.433013 0.75 0.5
d 5 5 5 0.5 0.866025 4.64686e-14
d 5 5 5 0.433013 0.75 -0.5
d 5 5 5 0.25 0.433013 -0.866025
d 5 5 5 0 0 1
d 5 5 5 2.32343e-14 0.5 0.866025
d 5 5 5 4.02429e-14 0.866025 0.5
d 5 5 5 4.64686e-14 1 4.64686e-14
d 5 5 5 4.02429e-14 0.866025 -0.5
d 5 5 5 2.32343e-14 0.5 -0.866025
d 5 5 5 -0 0 1
d 5 5 5 -0.25 0.433013 0.866025
d 5 5 5 -0.433013 0.75 0.5
d 5 5 5 -0.5 0.866025 4.64686e-14
d 5 5 5 -0.433013 0.75 -0.5
d 5 5 5 -0.25 0.433013 -0.866025
d 5 5 5 -0 0 1
d 5 5 5 -0.433013 0.25 0.866025
d 5 5 5 -0.75 0.433013 0.5
d 5 5 5 -0.866025 0.5 4.64686e-14
d 5 5 5 -0.75 0.433013 -0.5
d 5 5 5 -0.433013 0.25 -0.866025
d 5 5 5 -0 0 1
d 5 5 5 -0.5 4.64686e-14 0.866025
d 5 5 5 -0.866025 8.04859e-14 0.5
d 5 5 5 -1 9.29371e-14 4.64686e-14
d 5 5 5 -0.866025 8.04859e-14 -0.5
d 5 5 5 -0.5 4.64686e-14 -0.866025
d 5 5 5 -0 -0 1
d 5 5 5 -0.433013 -0.25 0.866025
d 5 5 5 -0.75 -0.433013 0.5
d 5 5 5 -0.866025 -0.5 4.64686e-14
d 5 5 5 -0.75 -0.433013 -0.5
d 5 5 5 -0.433013 -0.25 -0.866025
d 5 5 5 -0 -0 1
d 5 5 5 -0.25 -0.433013 0.866025
d 5 5 5 -0.433013 -0.75 0.5
d 5 5 5 -0.5 -0.866025 4.64686e-14
d 5 5 5 -0.433013 -0.75 -0.5
d 5 5 5 -0.25 -0.433013 -0.866025
d 5 5 5 -0 -0 1
d 5 5 5 -6.98139e-14 -0.5 0.866025
d 5 5 5 -1.20921e-13 -0.866025 0.5
d 5 5 5 -1.39628e-13 -1 4.64686e-14
d 5 5 5 -1.20921e-13 -0.866025 -0.5
d 5 5 5 -6.98139e-14 -0.5 -0.866025
d 5 5 5 0 -0 1
d 5 5 5 0.25 -0.433013 0.866025
d 5 5 5 0.433013 -0.75 0.5
d 5 5 5 0.5 -0.866025 4.64686e-14
d 5 5 5 0.433013 -0.75 -0.5
d 5 5 5 0.25 -0.433013 -0.866025
d 5 5 5 0 -0 1
d 5 5 5 0.433013 -0.25 0.866025
d 5 5 5 0.75 -0.433013 0.5
d 5 5 5 0.866025 -0.5 4.64686e-14
d 5 5 5 0.75 -0.433013 -0.5
d 5 5 5 0.433013 -0.25 -0.866025
