99
Liquid Crystals with Colloide in temperature=1.4, and potential=-8.40587e-23
Sp 1.96459 1.72845 2.34495 -0.752989 -0.600021 -0.270152
Sp 0.398768 -0.328952 1.25317 0.993369 -0.0559435 -0.100443
Sp 1.30979 0.983324 -0.0562789 0.18696 -0.579258 0.793415
Sp 2.33122 -0.269157 0.674474 -0.860683 0.348353 -0.371315
Sp -0.114307 -0.0718788 0.107607 -0.209502 -0.716446 -0.665443
Sp 2.45205 2.23361 1.64557 -0.282194 0.958707 -0.0353178
Sp -0.111022 0.0263809 1.00795 -0.779888 0.427056 0.4576
Sp 2.35103 2.01541 -0.414448 -0.688063 -0.519924 0.506209
Sp 1.74281 -0.286153 0.282587 -0.59077 0.295718 -0.750694
Sp -0.0505893 0.461917 1.50008 0.139199 0.24297 0.959994
Sp 1.61392 2.35094 -0.00736817 -0.373731 -0.0445094 0.926469
Sp 1.29918 2.44677 2.29248 0.0390911 0.0641609 -0.997174
Sp 1.48685 -0.302638 2.16578 -0.181073 -0.750784 -0.635244
Sp 1.14824 1.0477 0.997553 -0.779384 -0.514855 -0.357052
Sp 0.931249 0.27121 2.40489 -0.400236 -0.812705 -0.423464
Sp 0.443922 -0.220222 -0.0810974 -0.467605 -0.0940454 0.878921
Sp -0.202741 0.396961 -0.465547 0.344895 -0.492693 0.798937
Sp 0.564332 0.146848 0.750501 -0.208507 -0.828038 0.520459
Sp 0.0416138 0.576226 1.7691 -0.760542 -0.409252 0.504072
Sp 0.356922 1.13385 1.14054 0.522619 0.8521 -0.0281879
Sp -0.139559 0.993819 0.34112 0.127743 -0.268571 -0.954752
Sp -0.00987825 1.19184 2.11738 -0.48199 0.283375 0.829087
Sp 1.41336 1.57227 0.314131 0.14247 0.83672 0.528774
Sp -0.179564 2.16693 2.21349 -0.69789 -0.331929 -0.634643
Sp 0.762441 -0.435289 0.859739 0.400516 0.309208 -0.862541
Sp -0.438435 1.81521 2.30977 0.244698 -0.0331101 0.969034
Sp 0.132091 0.666022 0.156569 0.533472 0.308036 0.787732
d 5 5 5 0 0 1
d 5 5 5 0.5 0 0.866025
d 5 5 5 0.866025 0 0.5
d 5 5 5 1 0 4.64686e-14
d 5 5 5 0.866025 0 -0.5
d 5 5 5 0.5 0 -0.866025
d 5 5 5 0 0 1
d 5 5 5 0.433013 0.25 0.866025
d 5 5 5 0.75 0.433013 0.5
d 5 5 5 0.866025 0.5 4.64686e-14
d 5 5 5 0.75 0.433013 -0.5
d 5 5 5 0.433013 0.25 -0.866025
d 5 5 5 0 0 1
d 5 5 5 0.25 0.433013 0.866025
d 5 5 5 0.433013 0.75 0.5
d 5 5 5 0.5 0.866025 4.64686e-14
d 5 5 5 0.433013 0.75 -0.5
d 5 5 5 0.25 0.433013 -0.866025
d 5 5 5 0 0 1
d 5 5 5 2.32343e-14 0.5 0.866025
d 5 5 5 4.02429e-14 0.866025 0.5
d 5 5 5 4.64686e-14 1 4.64686e-14
d 5 5 5 4.02429e-14 0.866025 -0.5
d 5 5 5 2.32343e-14 0.5 -0.866025
d 5 5 5 -0 0 1
d 5 5 5 -0.25 0.433013 0.866025
d 5 5 5 -0.433013 0.75 0.5
d 5 5 5 -0.5 0.866025 4.64686e-14
d 5 5 5 -0.433013 0.75 -0.5
d 5 5 5 -0.25 0.433013 -0.866025
d 5 5 5 -0 0 1
d 5 5 5 -0.433013 0.25 0.866025
d 5 5 5 -0.75 0.433013 0.5
d 5 5 5 -0.866025 0.5 4.64686e-14
d 5 5 5 -0.75 0.433013 -0.5
d 5 5 5 -0.433013 0.25 -0.866025
d 5 5 5 -0 0 1
d 5 5 5 -0.5 4.64686e-14 0.866025
d 5 5 5 -0.866025 8.04859e-14 0.5
d 5 5 5 -1 9.29371e-14 4.64686e-14
d 5 5 5 -0.866025 8.04859e-14 -0.5
d 5 5 5 -0.5 4.64686e-14 -0.866025
d 5 5 5 -0 -0 1
d 5 5 5 -0.433013 -0.25 0.866025
d 5 5 5 -0.75 -0.433013 0.5
d 5 5 5 -0.866025 -0.5 4.64686e-14
d 5 5 5 -0.75 -0.433013 -0.5
d 5 5 5 -0.433013 -0.25 -0.866025
d 5 5 5 -0 -0 1
d 5 5 5 -0.25 -0.433013 0.866025
d 5 5 5 -0.433013 -0.75 0.5
d 5 5 5 -0.5 -0.866025 4.64686e-14
d 5 5 5 -0.433013 -0.75 -0.5
d 5 5 5 -0.25 -0.433013 -0.866025
d 5 5 5 -0 -0 1
d 5 5 5 -6.98139e-14 -0.5 0.866025
d 5 5 5 -1.20921e-13 -0.866025 0.5
d 5 5 5 -1.39628e-13 -1 4.64686e-14
d 5 5 5 -1.20921e-13 -0.866025 -0.5
d 5 5 5 -6.98139e-14 -0.5 -0.866025
d 5 5 5 0 -0 1
d 5 5 5 0.25 -0.433013 0.866025
d 5 5 5 0.433013 -0.75 0.5
d 5 5 5 0.5 -0.866025 4.64686e-14
d 5 5 5 0.433013 -0.75 -0.5
d 5 5 5 0.25 -0.433013 -0.866025
d 5 5 5 0 -0 1
d 5 5 5 0.433013 -0.25 0.866025
d 5 5 5 0.75 -0.433013 0.5
d 5 5 5 0.866025 -0.5 4.64686e-14
d 5 5 5 0.75 -0.433013 -0.5
d 5 5 5 0.433013 -0.25 -0.866025
