99
Liquid Crystals with Colloide in temperature=1.9, and potential=-2.2945e-23
Sp 1.9806 1.79747 -0.431988 -0.766882 -0.601751 -0.223129
Sp -0.342229 0.11484 2.31604 0.984365 0.0328819 0.173045
Sp 0.130863 1.04436 0.114428 0.556763 -0.460984 0.69102
Sp 1.78645 0.218023 0.663034 -0.840956 0.436301 -0.320053
Sp 2.25249 2.24473 0.771497 -0.339477 -0.826667 -0.448752
Sp 0.0102306 1.70065 1.15184 -0.16786 0.971771 -0.165785
Sp -0.429735 -0.0298364 1.97522 -0.723216 0.337528 0.602523
Sp 1.6329 1.62693 2.48082 -0.755829 -0.533983 0.378925
Sp -0.335208 0.887687 0.459588 -0.334065 0.647348 -0.685084
Sp 0.763085 0.335794 2.00398 0.295404 0.184432 0.937401
Sp 1.43084 -0.115929 1.76249 -0.52149 0.104572 0.846825
Sp 1.96456 0.0370854 1.50678 0.18522 0.175878 -0.96683
Sp 1.05979 0.0491925 1.46876 -0.258759 -0.617903 -0.742455
Sp 1.14824 1.0477 0.997553 -0.779384 -0.514855 -0.357052
Sp -0.375727 1.26566 0.0905584 -0.745839 -0.608552 -0.270904
Sp 1.37718 0.219339 2.40871 -0.319421 0.00928083 0.947568
Sp 2.15922 -0.250619 0.533319 0.290734 -0.826442 0.482148
Sp 0.859244 1.72528 0.36506 -0.0928464 -0.937863 0.334353
Sp 0.370125 1.13333 1.19629 -0.813757 -0.327739 0.479986
Sp 0.37941 0.597143 1.94026 0.57852 0.798048 0.168621
Sp 0.0518022 -0.443608 0.773814 0.173828 -0.586776 -0.790872
Sp 0.197427 1.1809 0.87669 -0.573187 0.330908 0.749638
Sp 2.34195 0.27554 0.282644 0.418237 0.665312 0.618416
Sp 0.749045 2.36787 0.310106 -0.705501 -0.395297 -0.588225
Sp 1.0994 0.0176476 0.757294 0.451116 0.392418 -0.801563
Sp 1.0081 -0.484358 0.130974 0.485566 0.116254 0.866436
Sp 1.28207 0.343455 1.28094 0.0139182 0.191686 0.981358
d 5 5 5 0 0 1
d 5 5 5 0.5 0 0.866025
d 5 5 5 0.866025 0 0.5
d 5 5 5 1 0 4.64686e-14
d 5 5 5 0.866025 0 -0.5
d 5 5 5 0.5 0 -0.866025
d 5 5 5 0 0 1
d 5 5 5 0.433013 0.25 0.866025
d 5 5 5 0.75 0.433013 0.5
d 5 5 5 0.866025 0.5 4.64686e-14
d 5 5 5 0.75 0.433013 -0.5
d 5 5 5 0.433013 0.25 -0.866025
d 5 5 5 0 0 1
d 5 5 5 0.25 0.433013 0.866025
d 5 5 5 0.433013 0.75 0.5
d 5 5 5 0.5 0.866025 4.64686e-14
d 5 5 5 0.433013 0.75 -0.5
d 5 5 5 0.25 0.433013 -0.866025
d 5 5 5 0 0 1
d 5 5 5 2.32343e-14 0.5 0.866025
d 5 5 5 4.02429e-14 0.866025 0.5
d 5 5 5 4.64686e-14 1 4.64686e-14
d 5 5 5 4.02429e-14 0.866025 -0.5
d 5 5 5 2.32343e-14 0.5 -0.866025
d 5 5 5 -0 0 1
d 5 5 5 -0.25 0.433013 0.866025
d 5 5 5 -0.433013 0.75 0.5
d 5 5 5 -0.5 0.866025 4.64686e-14
d 5 5 5 -0.433013 0.75 -0.5
d 5 5 5 -0.25 0.433013 -0.866025
d 5 5 5 -0 0 1
d 5 5 5 -0.433013 0.25 0.866025
d 5 5 5 -0.75 0.433013 0.5
d 5 5 5 -0.866025 0.5 4.64686e-14
d 5 5 5 -0.75 0.433013 -0.5
d 5 5 5 -0.433013 0.25 -0.866025
d 5 5 5 -0 0 1
d 5 5 5 -0.5 4.64686e-14 0.866025
d 5 5 5 -0.866025 8.04859e-14 0.5
d 5 5 5 -1 9.29371e-14 4.64686e-14
d 5 5 5 -0.866025 8.04859e-14 -0.5
d 5 5 5 -0.5 4.64686e-14 -0.866025
d 5 5 5 -0 -0 1
d 5 5 5 -0.433013 -0.25 0.866025
d 5 5 5 -0.75 -0.433013 0.5
d 5 5 5 -0.866025 -0.5 4.64686e-14
d 5 5 5 -0.75 -0.433013 -0.5
d 5 5 5 -0.433013 -0.25 -0.866025
d 5 5 5 -0 -0 1
d 5 5 5 -0.25 -0.433013 0.866025
d 5 5 5 -0.433013 -0.75 0.5
d 5 5 5 -0.5 -0.866025 4.64686e-14
d 5 5 5 -0.433013 -0.75 -0.5
d 5 5 5 -0.25 -0.433013 -0.866025
d 5 5 5 -0 -0 1
d 5 5 5 -6.98139e-14 -0.5 0.866025
d 5 5 5 -1.20921e-13 -0.866025 0.5
d 5 5 5 -1.39628e-13 -1 4.64686e-14
d 5 5 5 -1.20921e-13 -0.866025 -0.5
d 5 5 5 -6.98139e-14 -0.5 -0.866025
d 5 5 5 0 -0 1
d 5 5 5 0.25 -0.433013 0.866025
d 5 5 5 0.433013 -0.75 0.5
d 5 5 5 0.5 -0.866025 4.64686e-14
d 5 5 5 0.433013 -0.75 -0.5
d 5 5 5 0.25 -0.433013 -0.866025
d 5 5 5 0 -0 1
d 5 5 5 0.433013 -0.25 0.866025
d 5 5 5 0.75 -0.433013 0.5
d 5 5 5 0.866025 -0.5 4.64686e-14
d 5 5 5 0.75 -0.433013 -0.5
d 5 5 5 0.433013 -0.25 -0.866025
