99
Liquid Crystals with Colloide in temperature=0.2, and potential=-3.78366e-22
Sp 1.83835 0.088777 1.82845 -0.10623 -0.926959 -0.359809
Sp 0.399988 0.0416387 0.0852314 0.866511 -0.378365 -0.325575
Sp -0.296542 1.68602 0.110198 0.407305 -0.369699 0.83512
Sp 0.673215 2.36135 -0.0997773 -0.507272 0.0489467 -0.860395
Sp 0.30122 1.38258 1.33017 -0.0783475 -0.17657 -0.981165
Sp 0.549012 0.226921 2.23792 -0.0406267 0.640896 0.766552
Sp 1.7014 1.79941 -0.429638 -0.307426 0.950102 0.052873
Sp 1.44569 -0.467757 1.90281 -0.0794444 -0.82232 0.563453
Sp 1.62377 1.61986 2.41053 -0.52191 -0.0445955 -0.851834
Sp 0.776575 0.79659 0.609975 0.264762 0.21979 0.938932
Sp 1.35639 0.482711 0.569147 0.287881 0.23872 0.927436
Sp 1.72171 0.589728 2.38359 0.117232 0.781347 -0.612987
Sp 0.977493 0.932243 2.27219 -0.385595 -0.517631 -0.76379
Sp 1.14824 1.0477 0.997553 -0.779384 -0.514855 -0.357052
Sp 1.99168 -0.0553124 1.17847 0.651001 -0.620705 -0.436947
Sp 0.990753 2.2286 -0.325307 -0.0409027 -0.182468 0.982361
Sp 0.369171 1.76005 1.61966 0.353868 -0.119268 0.92766
Sp 2.47199 1.72068 0.200039 -0.182788 -0.939384 0.290079
Sp 2.16896 0.00172151 1.30337 -0.815829 -0.484615 0.31555
Sp 1.81068 0.562779 1.11494 0.743054 0.667475 -0.0484578
Sp 2.34033 2.15471 0.6621 -0.0692539 0.0978273 -0.992791
Sp 2.32497 0.000222807 0.177845 -0.474132 0.132373 0.870446
Sp 0.393696 0.111028 2.45419 -0.854887 0.354351 0.378949
Sp 0.475591 1.34339 1.2138 -0.886112 0.105371 0.451335
Sp 1.31765 2.28876 2.45742 0.412119 0.171521 -0.89484
Sp 1.31038 2.48627 0.446638 -0.0550651 0.107573 0.992671
Sp 1.26749 1.76333 0.403861 -0.205114 -0.658991 0.723643
d 5 5 5 0 0 1
d 5 5 5 0.5 0 0.866025
d 5 5 5 0.866025 0 0.5
d 5 5 5 1 0 4.64686e-14
d 5 5 5 0.866025 0 -0.5
d 5 5 5 0.5 0 -0.866025
d 5 5 5 0 0 1
d 5 5 5 0.433013 0.25 0.866025
d 5 5 5 0.75 0.433013 0.5
d 5 5 5 0.866025 0.5 4.64686e-14
d 5 5 5 0.75 0.433013 -0.5
d 5 5 5 0.433013 0.25 -0.866025
d 5 5 5 0 0 1
d 5 5 5 0.25 0.433013 0.866025
d 5 5 5 0.433013 0.75 0.5
d 5 5 5 0.5 0.866025 4.64686e-14
d 5 5 5 0.433013 0.75 -0.5
d 5 5 5 0.25 0.433013 -0.866025
d 5 5 5 0 0 1
d 5 5 5 2.32343e-14 0.5 0.866025
d 5 5 5 4.02429e-14 0.866025 0.5
d 5 5 5 4.64686e-14 1 4.64686e-14
d 5 5 5 4.02429e-14 0.866025 -0.5
d 5 5 5 2.32343e-14 0.5 -0.866025
d 5 5 5 -0 0 1
d 5 5 5 -0.25 0.433013 0.866025
d 5 5 5 -0.433013 0.75 0.5
d 5 5 5 -0.5 0.866025 4.64686e-14
d 5 5 5 -0.433013 0.75 -0.5
d 5 5 5 -0.25 0.433013 -0.866025
d 5 5 5 -0 0 1
d 5 5 5 -0.433013 0.25 0.866025
d 5 5 5 -0.75 0.433013 0.5
d 5 5 5 -0.866025 0.5 4.64686e-14
d 5 5 5 -0.75 0.433013 -0.5
d 5 5 5 -0.433013 0.25 -0.866025
d 5 5 5 -0 0 1
d 5 5 5 -0.5 4.64686e-14 0.866025
d 5 5 5 -0.866025 8.04859e-14 0.5
d 5 5 5 -1 9.29371e-14 4.64686e-14
d 5 5 5 -0.866025 8.04859e-14 -0.5
d 5 5 5 -0.5 4.64686e-14 -0.866025
d 5 5 5 -0 -0 1
d 5 5 5 -0.433013 -0.25 0.866025
d 5 5 5 -0.75 -0.433013 0.5
d 5 5 5 -0.866025 -0.5 4.64686e-14
d 5 5 5 -0.75 -0.433013 -0.5
d 5 5 5 -0.433013 -0.25 -0.866025
d 5 5 5 -0 -0 1
d 5 5 5 -0.25 -0.433013 0.866025
d 5 5 5 -0.433013 -0.75 0.5
d 5 5 5 -0.5 -0.866025 4.64686e-14
d 5 5 5 -0.433013 -0.75 -0.5
d 5 5 5 -0.25 -0.433013 -0.866025
d 5 5 5 -0 -0 1
d 5 5 5 -6.98139e-14 -0.5 0.866025
d 5 5 5 -1.20921e-13 -0.866025 0.5
d 5 5 5 -1.39628e-13 -1 4.64686e-14
d 5 5 5 -1.20921e-13 -0.866025 -0.5
d 5 5 5 -6.98139e-14 -0.5 -0.866025
d 5 5 5 0 -0 1
d 5 5 5 0.25 -0.433013 0.866025
d 5 5 5 0.433013 -0.75 0.5
d 5 5 5 0.5 -0.866025 4.64686e-14
d 5 5 5 0.433013 -0.75 -0.5
d 5 5 5 0.25 -0.433013 -0.866025
d 5 5 5 0 -0 1
d 5 5 5 0.433013 -0.25 0.866025
d 5 5 5 0.75 -0.433013 0.5
d 5 5 5 0.866025 -0.5 4.64686e-14
d 5 5 5 0.75 -0.433013 -0.5
d 5 5 5 0.433013 -0.25 -0.866025
