99
Liquid Crystals with Colloide in temperature=0.2, and potential=-3.52555e-22
Sp 1.36256 -0.231337 2.30769 -0.216704 -0.950481 -0.222768
Sp 0.215056 1.79505 -0.400942 0.673803 -0.605041 -0.424164
Sp 2.34515 0.902375 0.181331 0.333897 -0.52464 0.783113
Sp 0.452803 0.0268379 0.0990644 -0.560324 0.189614 -0.806278
Sp 0.30122 1.38258 1.33017 -0.0783475 -0.17657 -0.981165
Sp -0.0455722 0.954817 1.18346 -0.195329 0.838054 0.509423
Sp 2.00461 1.40382 -0.165801 -0.257928 0.958021 0.125173
Sp 1.93085 2.1375 -0.184857 0.0557619 -0.762071 0.645087
Sp 1.57405 1.64981 2.3787 -0.527563 -0.03653 -0.84873
Sp 0.776575 0.79659 0.609975 0.264762 0.21979 0.938932
Sp 1.35639 0.482711 0.569147 0.287881 0.23872 0.927436
Sp 1.72171 0.589728 2.38359 0.117232 0.781347 -0.612987
Sp 0.906236 0.817851 2.17638 -0.387977 -0.525512 -0.757173
Sp 1.14824 1.0477 0.997553 -0.779384 -0.514855 -0.357052
Sp -0.327845 2.21134 0.734727 0.62884 -0.642709 -0.43759
Sp 0.990753 2.2286 -0.325307 -0.0409027 -0.182468 0.982361
Sp 0.369171 1.76005 1.61966 0.353868 -0.119268 0.92766
Sp 1.49446 1.31225 -0.258376 0.317828 -0.9362 0.150048
Sp 2.01252 0.480873 1.46636 -0.858444 -0.364796 0.360552
Sp 1.81068 0.562779 1.11494 0.743054 0.667475 -0.0484578
Sp 2.48963 2.07242 0.675788 -0.0324214 0.077952 -0.99643
Sp 0.278119 -0.45366 -0.195775 -0.353554 0.0104397 0.935356
Sp 1.03444 2.45546 0.485375 -0.719662 0.191989 0.667254
Sp 0.475591 1.34339 1.2138 -0.886112 0.105371 0.451335
Sp 1.24744 2.28698 2.36369 0.388797 0.168678 -0.905751
Sp 1.31038 2.48627 0.446638 -0.0550651 0.107573 0.992671
Sp 1.26749 1.76333 0.403861 -0.205114 -0.658991 0.723643
d 5 5 5 0 0 1
d 5 5 5 0.5 0 0.866025
d 5 5 5 0.866025 0 0.5
d 5 5 5 1 0 4.64686e-14
d 5 5 5 0.866025 0 -0.5
d 5 5 5 0.5 0 -0.866025
d 5 5 5 0 0 1
d 5 5 5 0.433013 0.25 0.866025
d 5 5 5 0.75 0.433013 0.5
d 5 5 5 0.866025 0.5 4.64686e-14
d 5 5 5 0.75 0.433013 -0.5
d 5 5 5 0.433013 0.25 -0.866025
d 5 5 5 0 0 1
d 5 5 5 0.25 0.433013 0.866025
d 5 5 5 0.433013 0.75 0.5
d 5 5 5 0.5 0.866025 4.64686e-14
d 5 5 5 0.433013 0.75 -0.5
d 5 5 5 0.25 0.433013 -0.866025
d 5 5 5 0 0 1
d 5 5 5 2.32343e-14 0.5 0.866025
d 5 5 5 4.02429e-14 0.866025 0.5
d 5 5 5 4.64686e-14 1 4.64686e-14
d 5 5 5 4.02429e-14 0.866025 -0.5
d 5 5 5 2.32343e-14 0.5 -0.866025
d 5 5 5 -0 0 1
d 5 5 5 -0.25 0.433013 0.866025
d 5 5 5 -0.433013 0.75 0.5
d 5 5 5 -0.5 0.866025 4.64686e-14
d 5 5 5 -0.433013 0.75 -0.5
d 5 5 5 -0.25 0.433013 -0.866025
d 5 5 5 -0 0 1
d 5 5 5 -0.433013 0.25 0.866025
d 5 5 5 -0.75 0.433013 0.5
d 5 5 5 -0.866025 0.5 4.64686e-14
d 5 5 5 -0.75 0.433013 -0.5
d 5 5 5 -0.433013 0.25 -0.866025
d 5 5 5 -0 0 1
d 5 5 5 -0.5 4.64686e-14 0.866025
d 5 5 5 -0.866025 8.04859e-14 0.5
d 5 5 5 -1 9.29371e-14 4.64686e-14
d 5 5 5 -0.866025 8.04859e-14 -0.5
d 5 5 5 -0.5 4.64686e-14 -0.866025
d 5 5 5 -0 -0 1
d 5 5 5 -0.433013 -0.25 0.866025
d 5 5 5 -0.75 -0.433013 0.5
d 5 5 5 -0.866025 -0.5 4.64686e-14
d 5 5 5 -0.75 -0.433013 -0.5
d 5 5 5 -0.433013 -0.25 -0.866025
d 5 5 5 -0 -0 1
d 5 5 5 -0.25 -0.433013 0.866025
d 5 5 5 -0.433013 -0.75 0.5
d 5 5 5 -0.5 -0.866025 4.64686e-14
d 5 5 5 -0.433013 -0.75 -0.5
d 5 5 5 -0.25 -0.433013 -0.866025
d 5 5 5 -0 -0 1
d 5 5 5 -6.98139e-14 -0.5 0.866025
d 5 5 5 -1.20921e-13 -0.866025 0.5
d 5 5 5 -1.39628e-13 -1 4.64686e-14
d 5 5 5 -1.20921e-13 -0.866025 -0.5
d 5 5 5 -6.98139e-14 -0.5 -0.866025
d 5 5 5 0 -0 1
d 5 5 5 0.25 -0.433013 0.866025
d 5 5 5 0.433013 -0.75 0.5
d 5 5 5 0.5 -0.866025 4.64686e-14
d 5 5 5 0.433013 -0.75 -0.5
d 5 5 5 0.25 -0.433013 -0.866025
d 5 5 5 0 -0 1
d 5 5 5 0.433013 -0.25 0.866025
d 5 5 5 0.75 -0.433013 0.5
d 5 5 5 0.866025 -0.5 4.64686e-14
d 5 5 5 0.75 -0.433013 -0.5
d 5 5 5 0.433013 -0.25 -0.866025
