99
Liquid Crystals with Colloide in temperature=0.3, and potential=-2.99522e-22
Sp 1.81383 2.42735 -0.459212 -0.114127 -0.977836 -0.175532
Sp 1.60561 -0.059643 -0.314431 0.594523 -0.645718 -0.479156
Sp 2.17981 -0.243193 -0.488587 0.429053 -0.209584 0.878628
Sp 0.325357 2.37863 -0.322046 -0.917284 0.0688289 -0.39224
Sp 0.30122 1.38258 1.33017 -0.0783475 -0.17657 -0.981165
Sp 0.136265 0.56306 0.248996 -0.211004 0.888022 0.408526
Sp 0.476963 1.25859 0.466563 -0.580056 0.765289 0.279047
Sp 1.19248 0.148738 -0.223727 -0.128697 -0.896182 0.424611
Sp 1.56983 1.71922 2.36381 -0.527258 -0.0180051 -0.849514
Sp 0.776575 0.79659 0.609975 0.264762 0.21979 0.938932
Sp 1.00148 0.607425 -0.193413 0.256743 0.31221 0.914663
Sp 2.06347 0.611434 2.14703 0.194767 0.744423 -0.638671
Sp 0.636846 0.507512 1.65507 -0.383339 -0.517304 -0.765145
Sp 1.14824 1.0477 0.997553 -0.779384 -0.514855 -0.357052
Sp 1.65011 2.36023 0.175466 0.456762 -0.667139 -0.588468
Sp 0.641889 -0.233949 1.57009 -0.18483 -0.109817 0.976616
Sp 0.234225 1.92267 1.41631 0.342533 -0.0861634 0.935547
Sp 2.46266 0.538672 0.369444 -0.210999 -0.938957 0.271735
Sp 0.457652 1.13902 0.911422 -0.842662 -0.375594 0.385812
Sp 1.81068 0.562779 1.11494 0.743054 0.667475 -0.0484578
Sp 2.48963 2.07242 0.675788 -0.0324214 0.077952 -0.99643
Sp 0.193106 1.51344 2.38571 -0.420746 -0.231641 0.877106
Sp 1.63638 0.282437 0.989668 -0.527119 0.38704 0.756535
Sp 0.475591 1.34339 1.2138 -0.886112 0.105371 0.451335
Sp 1.60576 2.49634 2.23644 0.448042 0.207453 -0.86961
Sp 1.68388 2.25531 0.143149 0.0402731 0.0546899 0.997691
Sp 1.32485 1.88717 0.316657 -0.199053 -0.65394 0.729891
d 5 5 5 0 0 1
d 5 5 5 0.5 0 0.866025
d 5 5 5 0.866025 0 0.5
d 5 5 5 1 0 4.64686e-14
d 5 5 5 0.866025 0 -0.5
d 5 5 5 0.5 0 -0.866025
d 5 5 5 0 0 1
d 5 5 5 0.433013 0.25 0.866025
d 5 5 5 0.75 0.433013 0.5
d 5 5 5 0.866025 0.5 4.64686e-14
d 5 5 5 0.75 0.433013 -0.5
d 5 5 5 0.433013 0.25 -0.866025
d 5 5 5 0 0 1
d 5 5 5 0.25 0.433013 0.866025
d 5 5 5 0.433013 0.75 0.5
d 5 5 5 0.5 0.866025 4.64686e-14
d 5 5 5 0.433013 0.75 -0.5
d 5 5 5 0.25 0.433013 -0.866025
d 5 5 5 0 0 1
d 5 5 5 2.32343e-14 0.5 0.866025
d 5 5 5 4.02429e-14 0.866025 0.5
d 5 5 5 4.64686e-14 1 4.64686e-14
d 5 5 5 4.02429e-14 0.866025 -0.5
d 5 5 5 2.32343e-14 0.5 -0.866025
d 5 5 5 -0 0 1
d 5 5 5 -0.25 0.433013 0.866025
d 5 5 5 -0.433013 0.75 0.5
d 5 5 5 -0.5 0.866025 4.64686e-14
d 5 5 5 -0.433013 0.75 -0.5
d 5 5 5 -0.25 0.433013 -0.866025
d 5 5 5 -0 0 1
d 5 5 5 -0.433013 0.25 0.866025
d 5 5 5 -0.75 0.433013 0.5
d 5 5 5 -0.866025 0.5 4.64686e-14
d 5 5 5 -0.75 0.433013 -0.5
d 5 5 5 -0.433013 0.25 -0.866025
d 5 5 5 -0 0 1
d 5 5 5 -0.5 4.64686e-14 0.866025
d 5 5 5 -0.866025 8.04859e-14 0.5
d 5 5 5 -1 9.29371e-14 4.64686e-14
d 5 5 5 -0.866025 8.04859e-14 -0.5
d 5 5 5 -0.5 4.64686e-14 -0.866025
d 5 5 5 -0 -0 1
d 5 5 5 -0.433013 -0.25 0.866025
d 5 5 5 -0.75 -0.433013 0.5
d 5 5 5 -0.866025 -0.5 4.64686e-14
d 5 5 5 -0.75 -0.433013 -0.5
d 5 5 5 -0.433013 -0.25 -0.866025
d 5 5 5 -0 -0 1
d 5 5 5 -0.25 -0.433013 0.866025
d 5 5 5 -0.433013 -0.75 0.5
d 5 5 5 -0.5 -0.866025 4.64686e-14
d 5 5 5 -0.433013 -0.75 -0.5
d 5 5 5 -0.25 -0.433013 -0.866025
d 5 5 5 -0 -0 1
d 5 5 5 -6.98139e-14 -0.5 0.866025
d 5 5 5 -1.20921e-13 -0.866025 0.5
d 5 5 5 -1.39628e-13 -1 4.64686e-14
d 5 5 5 -1.20921e-13 -0.866025 -0.5
d 5 5 5 -6.98139e-14 -0.5 -0.866025
d 5 5 5 0 -0 1
d 5 5 5 0.25 -0.433013 0.866025
d 5 5 5 0.433013 -0.75 0.5
d 5 5 5 0.5 -0.866025 4.64686e-14
d 5 5 5 0.433013 -0.75 -0.5
d 5 5 5 0.25 -0.433013 -0.866025
d 5 5 5 0 -0 1
d 5 5 5 0.433013 -0.25 0.866025
d 5 5 5 0.75 -0.433013 0.5
d 5 5 5 0.866025 -0.5 4.64686e-14
d 5 5 5 0.75 -0.433013 -0.5
d 5 5 5 0.433013 -0.25 -0.866025
