99
Liquid Crystals with Colloide in temperature=0.7, and potential=-4.0088e-23
Sp 2.21609 1.33397 0.142131 -0.688203 -0.722166 -0.0696684
Sp 1.97756 0.446905 0.346691 0.901536 0.17213 -0.396995
Sp 1.27465 1.61506 0.270849 0.160104 -0.430983 0.888043
Sp -0.18668 -0.295634 2.33082 -0.672448 0.345014 -0.654812
Sp -0.313706 1.60459 1.02011 -0.203959 -0.0992857 -0.973932
Sp 1.99056 2.37352 2.05562 -0.377193 0.922781 0.0787393
Sp 0.103658 1.45124 -0.0811214 -0.644293 0.747065 0.163643
Sp -0.340013 1.96349 0.455704 -0.568493 -0.487285 0.662849
Sp 1.14557 2.29222 2.15072 -0.573676 0.114896 -0.810984
Sp 0.0142983 0.0303376 0.858069 0.0772827 0.023519 0.996732
Sp 2.21707 0.4889 0.681935 -0.17691 0.235833 0.955555
Sp 0.751493 1.38827 -0.0393447 -0.106212 0.567071 -0.816792
Sp 1.23786 0.0534883 1.67282 -0.220215 -0.626197 -0.747919
Sp 1.14824 1.0477 0.997553 -0.779384 -0.514855 -0.357052
Sp 1.2372 -0.109801 1.98244 -0.293436 -0.824682 -0.483523
Sp 1.54266 2.19107 -0.16859 -0.693124 0.41684 0.588067
Sp 2.24674 1.88298 -0.0299092 0.245992 -0.157947 0.956316
Sp 0.0131687 0.10412 0.381587 -0.365319 -0.832228 0.41706
Sp -0.184201 1.45612 1.32677 -0.87373 -0.240861 0.422589
Sp 0.850337 0.436406 1.63145 0.65764 0.748758 0.082888
Sp 0.27053 0.584588 2.01075 0.176242 -0.276625 -0.944678
Sp 0.174729 1.58291 0.836493 -0.555847 0.481951 0.677316
Sp -0.194597 -0.183077 -0.498749 -0.250688 0.92863 0.2735
Sp -0.298892 0.319485 0.544692 -0.887461 -0.160439 -0.432055
Sp 0.154821 2.41141 0.287935 0.232536 0.251653 -0.939467
Sp 1.09195 -0.131924 2.07352 -0.145639 0.297273 0.94362
Sp 0.506126 -0.175091 1.91213 0.326761 0.0623831 0.943046
d 5 5 5 0 0 1
d 5 5 5 0.5 0 0.866025
d 5 5 5 0.866025 0 0.5
d 5 5 5 1 0 4.64686e-14
d 5 5 5 0.866025 0 -0.5
d 5 5 5 0.5 0 -0.866025
d 5 5 5 0 0 1
d 5 5 5 0.433013 0.25 0.866025
d 5 5 5 0.75 0.433013 0.5
d 5 5 5 0.866025 0.5 4.64686e-14
d 5 5 5 0.75 0.433013 -0.5
d 5 5 5 0.433013 0.25 -0.866025
d 5 5 5 0 0 1
d 5 5 5 0.25 0.433013 0.866025
d 5 5 5 0.433013 0.75 0.5
d 5 5 5 0.5 0.866025 4.64686e-14
d 5 5 5 0.433013 0.75 -0.5
d 5 5 5 0.25 0.433013 -0.866025
d 5 5 5 0 0 1
d 5 5 5 2.32343e-14 0.5 0.866025
d 5 5 5 4.02429e-14 0.866025 0.5
d 5 5 5 4.64686e-14 1 4.64686e-14
d 5 5 5 4.02429e-14 0.866025 -0.5
d 5 5 5 2.32343e-14 0.5 -0.866025
d 5 5 5 -0 0 1
d 5 5 5 -0.25 0.433013 0.866025
d 5 5 5 -0.433013 0.75 0.5
d 5 5 5 -0.5 0.866025 4.64686e-14
d 5 5 5 -0.433013 0.75 -0.5
d 5 5 5 -0.25 0.433013 -0.866025
d 5 5 5 -0 0 1
d 5 5 5 -0.433013 0.25 0.866025
d 5 5 5 -0.75 0.433013 0.5
d 5 5 5 -0.866025 0.5 4.64686e-14
d 5 5 5 -0.75 0.433013 -0.5
d 5 5 5 -0.433013 0.25 -0.866025
d 5 5 5 -0 0 1
d 5 5 5 -0.5 4.64686e-14 0.866025
d 5 5 5 -0.866025 8.04859e-14 0.5
d 5 5 5 -1 9.29371e-14 4.64686e-14
d 5 5 5 -0.866025 8.04859e-14 -0.5
d 5 5 5 -0.5 4.64686e-14 -0.866025
d 5 5 5 -0 -0 1
d 5 5 5 -0.433013 -0.25 0.866025
d 5 5 5 -0.75 -0.433013 0.5
d 5 5 5 -0.866025 -0.5 4.64686e-14
d 5 5 5 -0.75 -0.433013 -0.5
d 5 5 5 -0.433013 -0.25 -0.866025
d 5 5 5 -0 -0 1
d 5 5 5 -0.25 -0.433013 0.866025
d 5 5 5 -0.433013 -0.75 0.5
d 5 5 5 -0.5 -0.866025 4.64686e-14
d 5 5 5 -0.433013 -0.75 -0.5
d 5 5 5 -0.25 -0.433013 -0.866025
d 5 5 5 -0 -0 1
d 5 5 5 -6.98139e-14 -0.5 0.866025
d 5 5 5 -1.20921e-13 -0.866025 0.5
d 5 5 5 -1.39628e-13 -1 4.64686e-14
d 5 5 5 -1.20921e-13 -0.866025 -0.5
d 5 5 5 -6.98139e-14 -0.5 -0.866025
d 5 5 5 0 -0 1
d 5 5 5 0.25 -0.433013 0.866025
d 5 5 5 0.433013 -0.75 0.5
d 5 5 5 0.5 -0.866025 4.64686e-14
d 5 5 5 0.433013 -0.75 -0.5
d 5 5 5 0.25 -0.433013 -0.866025
d 5 5 5 0 -0 1
d 5 5 5 0.433013 -0.25 0.866025
d 5 5 5 0.75 -0.433013 0.5
d 5 5 5 0.866025 -0.5 4.64686e-14
d 5 5 5 0.75 -0.433013 -0.5
d 5 5 5 0.433013 -0.25 -0.866025
