99
Liquid Crystals with Colloide in temperature=1.7, and potential=-9.9239e-23
Sp 2.14952 1.97037 2.41853 -0.761765 -0.587132 -0.273843
Sp -0.314519 2.06648 1.76265 0.974134 -0.223308 0.0345766
Sp 2.41794 1.28273 0.333746 0.416769 -0.437983 0.796539
Sp 2.29365 0.459224 0.836935 -0.78707 0.535256 -0.306628
Sp 2.25249 2.24473 0.771497 -0.339477 -0.826667 -0.448752
Sp 2.45205 2.23361 1.64557 -0.282194 0.958707 -0.0353178
Sp -0.429684 0.509831 1.64453 -0.717231 0.473847 0.510929
Sp 2.44354 2.16657 -0.0357358 -0.652654 -0.485013 0.582069
Sp -0.432269 0.35307 2.47295 -0.316764 0.425577 -0.84767
Sp 0.57469 0.294052 1.94871 0.258683 0.176869 0.949632
Sp 1.55275 0.018213 2.09972 -0.462287 0.130845 0.877024
Sp 1.33395 2.4727 2.27733 0.0482734 0.0699547 -0.996381
Sp 1.60698 -0.170968 1.5259 -0.122374 -0.673896 -0.728621
Sp 1.14824 1.0477 0.997553 -0.779384 -0.514855 -0.357052
Sp 0.553825 0.543854 0.0504101 -0.522596 -0.802446 -0.288051
Sp 0.908671 0.071068 -0.151894 -0.382715 -0.0243393 0.923546
Sp 0.086968 0.606226 0.718615 0.550307 -0.627766 0.550519
Sp 0.416961 1.88198 0.329377 -0.201344 -0.922109 0.330418
Sp 0.251806 1.02811 2.17575 -0.715647 -0.301183 0.630189
Sp 0.492685 0.577275 1.83212 0.601663 0.786317 0.140379
Sp 0.00163855 -0.345822 0.885831 0.15448 -0.590014 -0.792477
Sp 0.0613386 0.483441 1.53885 -0.54961 0.144513 0.822827
Sp 1.53078 1.38111 0.135999 0.179703 0.837092 0.516704
Sp 0.111216 2.38598 2.30793 -0.682579 -0.302719 -0.665167
Sp 1.49217 -0.355218 1.1871 0.579872 0.323315 -0.747807
Sp 0.125648 2.06787 -0.419411 0.355584 0.0246569 0.934319
Sp 2.21672 0.47048 0.992934 0.267317 0.234872 0.934546
d 5 5 5 0 0 1
d 5 5 5 0.5 0 0.866025
d 5 5 5 0.866025 0 0.5
d 5 5 5 1 0 4.64686e-14
d 5 5 5 0.866025 0 -0.5
d 5 5 5 0.5 0 -0.866025
d 5 5 5 0 0 1
d 5 5 5 0.433013 0.25 0.866025
d 5 5 5 0.75 0.433013 0.5
d 5 5 5 0.866025 0.5 4.64686e-14
d 5 5 5 0.75 0.433013 -0.5
d 5 5 5 0.433013 0.25 -0.866025
d 5 5 5 0 0 1
d 5 5 5 0.25 0.433013 0.866025
d 5 5 5 0.433013 0.75 0.5
d 5 5 5 0.5 0.866025 4.64686e-14
d 5 5 5 0.433013 0.75 -0.5
d 5 5 5 0.25 0.433013 -0.866025
d 5 5 5 0 0 1
d 5 5 5 2.32343e-14 0.5 0.866025
d 5 5 5 4.02429e-14 0.866025 0.5
d 5 5 5 4.64686e-14 1 4.64686e-14
d 5 5 5 4.02429e-14 0.866025 -0.5
d 5 5 5 2.32343e-14 0.5 -0.866025
d 5 5 5 -0 0 1
d 5 5 5 -0.25 0.433013 0.866025
d 5 5 5 -0.433013 0.75 0.5
d 5 5 5 -0.5 0.866025 4.64686e-14
d 5 5 5 -0.433013 0.75 -0.5
d 5 5 5 -0.25 0.433013 -0.866025
d 5 5 5 -0 0 1
d 5 5 5 -0.433013 0.25 0.866025
d 5 5 5 -0.75 0.433013 0.5
d 5 5 5 -0.866025 0.5 4.64686e-14
d 5 5 5 -0.75 0.433013 -0.5
d 5 5 5 -0.433013 0.25 -0.866025
d 5 5 5 -0 0 1
d 5 5 5 -0.5 4.64686e-14 0.866025
d 5 5 5 -0.866025 8.04859e-14 0.5
d 5 5 5 -1 9.29371e-14 4.64686e-14
d 5 5 5 -0.866025 8.04859e-14 -0.5
d 5 5 5 -0.5 4.64686e-14 -0.866025
d 5 5 5 -0 -0 1
d 5 5 5 -0.433013 -0.25 0.866025
d 5 5 5 -0.75 -0.433013 0.5
d 5 5 5 -0.866025 -0.5 4.64686e-14
d 5 5 5 -0.75 -0.433013 -0.5
d 5 5 5 -0.433013 -0.25 -0.866025
d 5 5 5 -0 -0 1
d 5 5 5 -0.25 -0.433013 0.866025
d 5 5 5 -0.433013 -0.75 0.5
d 5 5 5 -0.5 -0.866025 4.64686e-14
d 5 5 5 -0.433013 -0.75 -0.5
d 5 5 5 -0.25 -0.433013 -0.866025
d 5 5 5 -0 -0 1
d 5 5 5 -6.98139e-14 -0.5 0.866025
d 5 5 5 -1.20921e-13 -0.866025 0.5
d 5 5 5 -1.39628e-13 -1 4.64686e-14
d 5 5 5 -1.20921e-13 -0.866025 -0.5
d 5 5 5 -6.98139e-14 -0.5 -0.866025
d 5 5 5 0 -0 1
d 5 5 5 0.25 -0.433013 0.866025
d 5 5 5 0.433013 -0.75 0.5
d 5 5 5 0.5 -0.866025 4.64686e-14
d 5 5 5 0.433013 -0.75 -0.5
d 5 5 5 0.25 -0.433013 -0.866025
d 5 5 5 0 -0 1
d 5 5 5 0.433013 -0.25 0.866025
d 5 5 5 0.75 -0.433013 0.5
d 5 5 5 0.866025 -0.5 4.64686e-14
d 5 5 5 0.75 -0.433013 -0.5
d 5 5 5 0.433013 -0.25 -0.866025
