99
Liquid Crystals with Colloide in temperature=0.5, and potential=-6.32568e-23
Sp 1.92499 1.00393 0.493642 -0.683377 -0.729644 0.0247905
Sp 1.79969 2.05926 0.07705 0.870694 -0.155854 -0.466478
Sp 2.10917 -0.490785 -0.449022 0.394829 -0.27486 0.876677
Sp -0.422678 2.14079 -0.219864 -0.777707 0.220743 -0.588595
Sp 0.423692 1.34442 1.70769 -0.0566765 -0.199903 -0.978175
Sp 2.19558 2.36508 1.87718 -0.333063 0.942425 0.0300609
Sp 1.88922 1.73976 -0.3419 -0.753753 0.655863 0.0412428
Sp 0.0411722 1.14008 1.92731 -0.327941 -0.515579 0.791601
Sp 1.43245 1.83858 2.19244 -0.532136 0.00745936 -0.846626
Sp 0.428053 0.353104 0.277632 0.20826 0.128112 0.969647
Sp 1.62567 0.875145 0.203693 -0.340498 0.335257 0.878444
Sp 0.654737 -0.188861 2.18517 -0.0916365 0.681797 -0.725779
Sp 0.875569 0.269032 1.3815 -0.296992 -0.536932 -0.78962
Sp 1.14824 1.0477 0.997553 -0.779384 -0.514855 -0.357052
Sp 0.404442 -0.485703 1.40683 -0.423706 -0.752512 -0.504181
Sp 2.03358 0.606595 -0.385352 -0.504344 0.718394 0.479111
Sp 2.11493 1.62241 0.275949 0.187276 -0.206633 0.960328
Sp -0.101124 0.322553 0.500817 -0.412682 -0.786716 0.459099
Sp 0.0441746 2.34409 1.0961 -0.910452 -0.0231377 0.412967
Sp 1.22492 0.211146 1.82078 0.731268 0.668887 0.133552
Sp -0.227459 1.91328 0.89061 0.0549712 0.0432359 -0.997551
Sp -0.00473317 1.07775 1.23796 -0.589955 0.313293 0.744178
Sp 0.160412 2.08205 0.503058 -0.168796 0.78417 0.597148
Sp 0.0319436 1.16874 1.29537 -0.952163 0.0309331 -0.304021
Sp 0.310497 -0.477725 -0.0119544 0.245993 0.271924 -0.930347
Sp 1.39957 -0.309843 0.288159 -0.0352812 0.15922 0.986613
Sp -0.0923836 2.37789 2.23495 0.176894 -0.0597639 0.982414
d 5 5 5 0 0 1
d 5 5 5 0.5 0 0.866025
d 5 5 5 0.866025 0 0.5
d 5 5 5 1 0 4.64686e-14
d 5 5 5 0.866025 0 -0.5
d 5 5 5 0.5 0 -0.866025
d 5 5 5 0 0 1
d 5 5 5 0.433013 0.25 0.866025
d 5 5 5 0.75 0.433013 0.5
d 5 5 5 0.866025 0.5 4.64686e-14
d 5 5 5 0.75 0.433013 -0.5
d 5 5 5 0.433013 0.25 -0.866025
d 5 5 5 0 0 1
d 5 5 5 0.25 0.433013 0.866025
d 5 5 5 0.433013 0.75 0.5
d 5 5 5 0.5 0.866025 4.64686e-14
d 5 5 5 0.433013 0.75 -0.5
d 5 5 5 0.25 0.433013 -0.866025
d 5 5 5 0 0 1
d 5 5 5 2.32343e-14 0.5 0.866025
d 5 5 5 4.02429e-14 0.866025 0.5
d 5 5 5 4.64686e-14 1 4.64686e-14
d 5 5 5 4.02429e-14 0.866025 -0.5
d 5 5 5 2.32343e-14 0.5 -0.866025
d 5 5 5 -0 0 1
d 5 5 5 -0.25 0.433013 0.866025
d 5 5 5 -0.433013 0.75 0.5
d 5 5 5 -0.5 0.866025 4.64686e-14
d 5 5 5 -0.433013 0.75 -0.5
d 5 5 5 -0.25 0.433013 -0.866025
d 5 5 5 -0 0 1
d 5 5 5 -0.433013 0.25 0.866025
d 5 5 5 -0.75 0.433013 0.5
d 5 5 5 -0.866025 0.5 4.64686e-14
d 5 5 5 -0.75 0.433013 -0.5
d 5 5 5 -0.433013 0.25 -0.866025
d 5 5 5 -0 0 1
d 5 5 5 -0.5 4.64686e-14 0.866025
d 5 5 5 -0.866025 8.04859e-14 0.5
d 5 5 5 -1 9.29371e-14 4.64686e-14
d 5 5 5 -0.866025 8.04859e-14 -0.5
d 5 5 5 -0.5 4.64686e-14 -0.866025
d 5 5 5 -0 -0 1
d 5 5 5 -0.433013 -0.25 0.866025
d 5 5 5 -0.75 -0.433013 0.5
d 5 5 5 -0.866025 -0.5 4.64686e-14
d 5 5 5 -0.75 -0.433013 -0.5
d 5 5 5 -0.433013 -0.25 -0.866025
d 5 5 5 -0 -0 1
d 5 5 5 -0.25 -0.433013 0.866025
d 5 5 5 -0.433013 -0.75 0.5
d 5 5 5 -0.5 -0.866025 4.64686e-14
d 5 5 5 -0.433013 -0.75 -0.5
d 5 5 5 -0.25 -0.433013 -0.866025
d 5 5 5 -0 -0 1
d 5 5 5 -6.98139e-14 -0.5 0.866025
d 5 5 5 -1.20921e-13 -0.866025 0.5
d 5 5 5 -1.39628e-13 -1 4.64686e-14
d 5 5 5 -1.20921e-13 -0.866025 -0.5
d 5 5 5 -6.98139e-14 -0.5 -0.866025
d 5 5 5 0 -0 1
d 5 5 5 0.25 -0.433013 0.866025
d 5 5 5 0.433013 -0.75 0.5
d 5 5 5 0.5 -0.866025 4.64686e-14
d 5 5 5 0.433013 -0.75 -0.5
d 5 5 5 0.25 -0.433013 -0.866025
d 5 5 5 0 -0 1
d 5 5 5 0.433013 -0.25 0.866025
d 5 5 5 0.75 -0.433013 0.5
d 5 5 5 0.866025 -0.5 4.64686e-14
d 5 5 5 0.75 -0.433013 -0.5
d 5 5 5 0.433013 -0.25 -0.866025
