99
Liquid Crystals with Colloide in temperature=1.2, and potential=-7.06599e-23
Sp 1.9241 1.90683 2.28073 -0.773523 -0.563607 -0.289844
Sp -0.40696 0.550741 0.421971 0.930202 0.172934 -0.323756
Sp 1.10907 1.18425 -0.185831 0.146966 -0.564132 0.8125
Sp -0.15244 1.2674 -0.488483 -0.751638 -0.00345385 -0.659567
Sp 0.42954 -0.499194 1.78718 -0.0211744 -0.62136 -0.783239
Sp 2.30064 2.44737 1.59366 -0.306927 0.951028 -0.0366307
Sp -0.206064 0.787936 0.557626 -0.754504 0.579171 0.308682
Sp 2.49027 1.89443 0.120549 -0.620277 -0.510963 0.595125
Sp 1.24828 0.108792 -0.426859 -0.573502 0.324835 -0.752049
Sp 0.535736 0.75651 -0.102206 0.229092 0.23502 0.944607
Sp 1.45041 -0.250529 -0.112801 -0.412795 0.0554045 0.909137
Sp 1.65727 0.339103 2.23732 0.139479 0.282416 -0.949098
Sp 1.54753 0.320262 1.93691 -0.182388 -0.644214 -0.742781
Sp 1.14824 1.0477 0.997553 -0.779384 -0.514855 -0.357052
Sp 1.06443 0.250108 2.24546 -0.362951 -0.811367 -0.458204
Sp 0.301707 -0.433729 0.25863 -0.455848 -0.142402 0.878592
Sp -0.196446 1.98747 2.02234 0.455507 -0.154317 0.876755
Sp -0.0979819 -0.0507644 0.577614 -0.365225 -0.820277 0.440178
Sp -0.477114 0.665253 1.70452 -0.822691 -0.355133 0.443915
Sp 0.111799 1.22398 1.339 0.466434 0.884291 0.021666
Sp -0.123711 0.972608 0.439574 0.134005 -0.278156 -0.951142
Sp 0.495999 0.91546 2.00166 -0.400888 0.245802 0.882536
Sp 0.96277 1.68686 0.490151 0.028596 0.833667 0.551526
Sp -0.377582 1.85279 -0.120218 -0.76767 -0.422362 -0.481969
Sp 0.697773 -0.208239 1.5074 0.435043 0.412509 -0.800359
Sp 1.67176 1.93261 0.233224 0.00559609 -0.000387846 0.999984
Sp 1.10503 -0.306869 1.06057 0.599808 0.0163863 0.799976
d 5 5 5 0 0 1
d 5 5 5 0.5 0 0.866025
d 5 5 5 0.866025 0 0.5
d 5 5 5 1 0 4.64686e-14
d 5 5 5 0.866025 0 -0.5
d 5 5 5 0.5 0 -0.866025
d 5 5 5 0 0 1
d 5 5 5 0.433013 0.25 0.866025
d 5 5 5 0.75 0.433013 0.5
d 5 5 5 0.866025 0.5 4.64686e-14
d 5 5 5 0.75 0.433013 -0.5
d 5 5 5 0.433013 0.25 -0.866025
d 5 5 5 0 0 1
d 5 5 5 0.25 0.433013 0.866025
d 5 5 5 0.433013 0.75 0.5
d 5 5 5 0.5 0.866025 4.64686e-14
d 5 5 5 0.433013 0.75 -0.5
d 5 5 5 0.25 0.433013 -0.866025
d 5 5 5 0 0 1
d 5 5 5 2.32343e-14 0.5 0.866025
d 5 5 5 4.02429e-14 0.866025 0.5
d 5 5 5 4.64686e-14 1 4.64686e-14
d 5 5 5 4.02429e-14 0.866025 -0.5
d 5 5 5 2.32343e-14 0.5 -0.866025
d 5 5 5 -0 0 1
d 5 5 5 -0.25 0.433013 0.866025
d 5 5 5 -0.433013 0.75 0.5
d 5 5 5 -0.5 0.866025 4.64686e-14
d 5 5 5 -0.433013 0.75 -0.5
d 5 5 5 -0.25 0.433013 -0.866025
d 5 5 5 -0 0 1
d 5 5 5 -0.433013 0.25 0.866025
d 5 5 5 -0.75 0.433013 0.5
d 5 5 5 -0.866025 0.5 4.64686e-14
d 5 5 5 -0.75 0.433013 -0.5
d 5 5 5 -0.433013 0.25 -0.866025
d 5 5 5 -0 0 1
d 5 5 5 -0.5 4.64686e-14 0.866025
d 5 5 5 -0.866025 8.04859e-14 0.5
d 5 5 5 -1 9.29371e-14 4.64686e-14
d 5 5 5 -0.866025 8.04859e-14 -0.5
d 5 5 5 -0.5 4.64686e-14 -0.866025
d 5 5 5 -0 -0 1
d 5 5 5 -0.433013 -0.25 0.866025
d 5 5 5 -0.75 -0.433013 0.5
d 5 5 5 -0.866025 -0.5 4.64686e-14
d 5 5 5 -0.75 -0.433013 -0.5
d 5 5 5 -0.433013 -0.25 -0.866025
d 5 5 5 -0 -0 1
d 5 5 5 -0.25 -0.433013 0.866025
d 5 5 5 -0.433013 -0.75 0.5
d 5 5 5 -0.5 -0.866025 4.64686e-14
d 5 5 5 -0.433013 -0.75 -0.5
d 5 5 5 -0.25 -0.433013 -0.866025
d 5 5 5 -0 -0 1
d 5 5 5 -6.98139e-14 -0.5 0.866025
d 5 5 5 -1.20921e-13 -0.866025 0.5
d 5 5 5 -1.39628e-13 -1 4.64686e-14
d 5 5 5 -1.20921e-13 -0.866025 -0.5
d 5 5 5 -6.98139e-14 -0.5 -0.866025
d 5 5 5 0 -0 1
d 5 5 5 0.25 -0.433013 0.866025
d 5 5 5 0.433013 -0.75 0.5
d 5 5 5 0.5 -0.866025 4.64686e-14
d 5 5 5 0.433013 -0.75 -0.5
d 5 5 5 0.25 -0.433013 -0.866025
d 5 5 5 0 -0 1
d 5 5 5 0.433013 -0.25 0.866025
d 5 5 5 0.75 -0.433013 0.5
d 5 5 5 0.866025 -0.5 4.64686e-14
d 5 5 5 0.75 -0.433013 -0.5
d 5 5 5 0.433013 -0.25 -0.866025
