99
Liquid Crystals with Colloide in temperature=0.4, and potential=-1.37226e-22
Sp 1.8332 0.855642 -0.306583 -0.172964 -0.968838 -0.177301
Sp -0.318988 -0.210624 0.283358 0.767736 -0.584918 -0.261633
Sp 1.1647 1.22354 -0.471112 0.118227 -0.582857 0.803928
Sp 1.27911 0.429931 0.0788894 -0.825154 0.39348 -0.405333
Sp 0.30122 1.38258 1.33017 -0.0783475 -0.17657 -0.981165
Sp 2.37417 1.89218 1.76714 -0.333458 0.942764 0.00149888
Sp 1.91327 2.03657 0.404503 -0.698211 0.683819 0.211882
Sp 0.432901 0.812003 2.10078 -0.20361 -0.562397 0.801407
Sp 1.54748 1.69405 2.32207 -0.526397 -0.0247455 -0.849879
Sp 0.776575 0.79659 0.609975 0.264762 0.21979 0.938932
Sp 0.596812 0.0441413 0.5681 0.136413 0.154857 0.978474
Sp 1.94973 0.172953 2.33213 0.184548 0.721548 -0.667315
Sp 0.469324 0.526017 1.76709 -0.427717 -0.516049 -0.742127
Sp 1.14824 1.0477 0.997553 -0.779384 -0.514855 -0.357052
Sp 2.37157 -0.365184 0.820705 0.0372897 -0.778357 -0.626714
Sp -0.23578 1.94286 0.944098 -0.392471 0.386955 0.834405
Sp -0.371717 1.67243 1.03527 0.239909 -0.162744 0.957057
Sp 1.84652 1.50781 -0.436422 -0.449608 -0.887571 0.100347
Sp 0.0188082 1.23838 1.28979 -0.847506 -0.314088 0.427881
Sp 1.78343 0.249565 1.21275 0.778462 0.627126 -0.0266408
Sp -0.107528 1.72072 0.664362 0.0762196 -0.014739 -0.996982
Sp 0.434365 2.30662 0.806177 -0.607008 -0.0945459 0.789052
Sp -0.0892744 -0.306741 1.46808 -0.162892 0.742352 0.649907
Sp -0.149818 1.69104 2.28683 -0.986288 0.156023 -0.0537778
Sp 1.10058 1.99336 0.468714 0.467717 0.141389 -0.872496
Sp 1.27562 1.75216 0.0258374 -0.073373 -0.0792583 0.99415
Sp 2.16748 0.181585 -0.141522 -0.064004 -0.524986 0.848701
d 5 5 5 0 0 1
d 5 5 5 0.5 0 0.866025
d 5 5 5 0.866025 0 0.5
d 5 5 5 1 0 4.64686e-14
d 5 5 5 0.866025 0 -0.5
d 5 5 5 0.5 0 -0.866025
d 5 5 5 0 0 1
d 5 5 5 0.433013 0.25 0.866025
d 5 5 5 0.75 0.433013 0.5
d 5 5 5 0.866025 0.5 4.64686e-14
d 5 5 5 0.75 0.433013 -0.5
d 5 5 5 0.433013 0.25 -0.866025
d 5 5 5 0 0 1
d 5 5 5 0.25 0.433013 0.866025
d 5 5 5 0.433013 0.75 0.5
d 5 5 5 0.5 0.866025 4.64686e-14
d 5 5 5 0.433013 0.75 -0.5
d 5 5 5 0.25 0.433013 -0.866025
d 5 5 5 0 0 1
d 5 5 5 2.32343e-14 0.5 0.866025
d 5 5 5 4.02429e-14 0.866025 0.5
d 5 5 5 4.64686e-14 1 4.64686e-14
d 5 5 5 4.02429e-14 0.866025 -0.5
d 5 5 5 2.32343e-14 0.5 -0.866025
d 5 5 5 -0 0 1
d 5 5 5 -0.25 0.433013 0.866025
d 5 5 5 -0.433013 0.75 0.5
d 5 5 5 -0.5 0.866025 4.64686e-14
d 5 5 5 -0.433013 0.75 -0.5
d 5 5 5 -0.25 0.433013 -0.866025
d 5 5 5 -0 0 1
d 5 5 5 -0.433013 0.25 0.866025
d 5 5 5 -0.75 0.433013 0.5
d 5 5 5 -0.866025 0.5 4.64686e-14
d 5 5 5 -0.75 0.433013 -0.5
d 5 5 5 -0.433013 0.25 -0.866025
d 5 5 5 -0 0 1
d 5 5 5 -0.5 4.64686e-14 0.866025
d 5 5 5 -0.866025 8.04859e-14 0.5
d 5 5 5 -1 9.29371e-14 4.64686e-14
d 5 5 5 -0.866025 8.04859e-14 -0.5
d 5 5 5 -0.5 4.64686e-14 -0.866025
d 5 5 5 -0 -0 1
d 5 5 5 -0.433013 -0.25 0.866025
d 5 5 5 -0.75 -0.433013 0.5
d 5 5 5 -0.866025 -0.5 4.64686e-14
d 5 5 5 -0.75 -0.433013 -0.5
d 5 5 5 -0.433013 -0.25 -0.866025
d 5 5 5 -0 -0 1
d 5 5 5 -0.25 -0.433013 0.866025
d 5 5 5 -0.433013 -0.75 0.5
d 5 5 5 -0.5 -0.866025 4.64686e-14
d 5 5 5 -0.433013 -0.75 -0.5
d 5 5 5 -0.25 -0.433013 -0.866025
d 5 5 5 -0 -0 1
d 5 5 5 -6.98139e-14 -0.5 0.866025
d 5 5 5 -1.20921e-13 -0.866025 0.5
d 5 5 5 -1.39628e-13 -1 4.64686e-14
d 5 5 5 -1.20921e-13 -0.866025 -0.5
d 5 5 5 -6.98139e-14 -0.5 -0.866025
d 5 5 5 0 -0 1
d 5 5 5 0.25 -0.433013 0.866025
d 5 5 5 0.433013 -0.75 0.5
d 5 5 5 0.5 -0.866025 4.64686e-14
d 5 5 5 0.433013 -0.75 -0.5
d 5 5 5 0.25 -0.433013 -0.866025
d 5 5 5 0 -0 1
d 5 5 5 0.433013 -0.25 0.866025
d 5 5 5 0.75 -0.433013 0.5
d 5 5 5 0.866025 -0.5 4.64686e-14
d 5 5 5 0.75 -0.433013 -0.5
d 5 5 5 0.433013 -0.25 -0.866025
